<?xml version="1.0" encoding="UTF-8"?>
<edges xmlns:xsi="http://www.w3.org/2001/XMLSchema-instance" xsi:noNamespaceSchemaLocation="http://sumo.sf.net/xsd/edges_file.xsd">
<edge from="1" id="1to2" to="2"/>
<edge from="2" id="2to3" to="3"/>
<edge from="3" id="3to4" to="4"/>
<edge from="4" id="4to5" to="5"/>
<edge from="5" id="5to6" to="6"/>
<edge from="6" id="6to7" to="7"/>
<edge from="7" id="7to8" to="8"/>
<edge from="8" id="8to9" to="9"/>
<edge from="9" id="9to10" to="10"/>
<edge from="10" id="10to11" to="11"/>
<edge from="11" id="11to12" to="12"/>
<edge from="12" id="12to13" to="13"/>
<edge from="13" id="13to14" to="14"/>
<edge from="14" id="14to15" to="15"/>
<edge from="15" id="15to16" to="16"/>
<edge from="16" id="16to17" to="17"/>
<edge from="17" id="17to18" to="18"/>
<edge from="18" id="18to19" to="19"/>
<edge from="19" id="19to20" to="20"/>
<edge from="20" id="20to21" to="21"/>
<edge from="21" id="21to22" to="22"/>
<edge from="22" id="22to23" to="23"/>
<edge from="23" id="23to24" to="24"/>
<edge from="24" id="24to25" to="25"/>
<edge from="25" id="25to26" to="26"/>
<edge from="26" id="26to27" to="27"/>
<edge from="27" id="27to28" to="28"/>
<edge from="28" id="28to29" to="29"/>
<edge from="29" id="29to30" to="30"/>
<edge from="30" id="30to31" to="31"/>
<edge from="31" id="31to32" to="32"/>
<edge from="32" id="32to33" to="33"/>
<edge from="33" id="33to34" to="34"/>
<edge from="34" id="34to35" to="35"/>
<edge from="35" id="35to36" to="36"/>
<edge from="36" id="36to37" to="37"/>
<edge from="37" id="37to38" to="38"/>
<edge from="38" id="38to39" to="39"/>
<edge from="39" id="39to40" to="40"/>
<edge from="40" id="40to41" to="41"/>
<edge from="41" id="41to42" to="42"/>
<edge from="42" id="42to43" to="43"/>
<edge from="43" id="43to44" to="44"/>
<edge from="44" id="44to45" to="45"/>
<edge from="45" id="45to46" to="46"/>
<edge from="46" id="46to47" to="47"/>
<edge from="47" id="47to48" to="48"/>
<edge from="48" id="48to49" to="49"/>
<edge from="49" id="49to50" to="50"/>
<edge from="50" id="50to51" to="51"/>
<edge from="51" id="51to52" to="52"/>
<edge from="52" id="52to53" to="53"/>
<edge from="53" id="53to54" to="54"/>
<edge from="54" id="54to55" to="55"/>
<edge from="55" id="55to56" to="56"/>
<edge from="56" id="56to57" to="57"/>
<edge from="57" id="57to58" to="58"/>
<edge from="58" id="58to59" to="59"/>
<edge from="59" id="59to60" to="60"/>
<edge from="60" id="60to61" to="61"/>
<edge from="61" id="61to62" to="62"/>
<edge from="62" id="62to63" to="63"/>
<edge from="63" id="63to64" to="64"/>
<edge from="64" id="64to65" to="65"/>
<edge from="65" id="65to66" to="66"/>
<edge from="66" id="66to67" to="67"/>
<edge from="67" id="67to68" to="68"/>
<edge from="68" id="68to69" to="69"/>
<edge from="69" id="69to70" to="70"/>
<edge from="70" id="70to71" to="71"/>
<edge from="71" id="71to72" to="72"/>
<edge from="72" id="72to73" to="73"/>
<edge from="73" id="73to74" to="74"/>
<edge from="74" id="74to75" to="75"/>
<edge from="75" id="75to76" to="76"/>
<edge from="76" id="76to77" to="77"/>
<edge from="77" id="77to78" to="78"/>
<edge from="78" id="78to79" to="79"/>
<edge from="79" id="79to80" to="80"/>
<edge from="80" id="80to81" to="81"/>
<edge from="81" id="81to82" to="82"/>
<edge from="82" id="82to83" to="83"/>
<edge from="83" id="83to84" to="84"/>
<edge from="84" id="84to85" to="85"/>
<edge from="85" id="85to86" to="86"/>
<edge from="86" id="86to87" to="87"/>
<edge from="87" id="87to88" to="88"/>
<edge from="88" id="88to89" to="89"/>
<edge from="89" id="89to90" to="90"/>
<edge from="90" id="90to91" to="91"/>
<edge from="91" id="91to92" to="92"/>
<edge from="92" id="92to93" to="93"/>
<edge from="93" id="93to94" to="94"/>
<edge from="94" id="94to95" to="95"/>
<edge from="95" id="95to96" to="96"/>
<edge from="96" id="96to97" to="97"/>
<edge from="97" id="97to98" to="98"/>
<edge from="98" id="98to99" to="99"/>
<edge from="99" id="99to100" to="100"/>
<edge from="100" id="100to101" to="101"/>
<edge from="101" id="101to102" to="102"/>
<edge from="102" id="102to103" to="103"/>
<edge from="103" id="103to104" to="104"/>
<edge from="104" id="104to105" to="105"/>
<edge from="105" id="105to106" to="106"/>
<edge from="106" id="106to107" to="107"/>
<edge from="107" id="107to108" to="108"/>
<edge from="108" id="108to109" to="109"/>
<edge from="109" id="109to110" to="110"/>
<edge from="110" id="110to111" to="111"/>
<edge from="111" id="111to112" to="112"/>
<edge from="112" id="112to113" to="113"/>
<edge from="113" id="113to114" to="114"/>
<edge from="114" id="114to115" to="115"/>
<edge from="115" id="115to116" to="116"/>
<edge from="116" id="116to117" to="117"/>
<edge from="117" id="117to118" to="118"/>
<edge from="118" id="118to119" to="119"/>
<edge from="119" id="119to120" to="120"/>
<edge from="120" id="120to121" to="121"/>
<edge from="121" id="121to122" to="122"/>
<edge from="122" id="122to123" to="123"/>
<edge from="123" id="123to124" to="124"/>
<edge from="124" id="124to125" to="125"/>
<edge from="125" id="125to126" to="126"/>
<edge from="126" id="126to127" to="127"/>
<edge from="127" id="127to128" to="128"/>
<edge from="128" id="128to129" to="129"/>
<edge from="129" id="129to130" to="130"/>
<edge from="130" id="130to131" to="131"/>
<edge from="131" id="131to132" to="132"/>
<edge from="132" id="132to133" to="133"/>
<edge from="133" id="133to134" to="134"/>
<edge from="134" id="134to135" to="135"/>
<edge from="135" id="135to136" to="136"/>
<edge from="136" id="136to137" to="137"/>
<edge from="137" id="137to138" to="138"/>
<edge from="138" id="138to139" to="139"/>
<edge from="139" id="139to140" to="140"/>
<edge from="140" id="140to141" to="141"/>
<edge from="141" id="141to142" to="142"/>
<edge from="142" id="142to143" to="143"/>
<edge from="143" id="143to144" to="144"/>
<edge from="144" id="144to145" to="145"/>
<edge from="145" id="145to146" to="146"/>
<edge from="146" id="146to147" to="147"/>
<edge from="147" id="147to148" to="148"/>
<edge from="148" id="148to149" to="149"/>
<edge from="149" id="149to150" to="150"/>
<edge from="150" id="150to151" to="151"/>
<edge from="151" id="151to152" to="152"/>
<edge from="152" id="152to153" to="153"/>
<edge from="153" id="153to154" to="154"/>
<edge from="154" id="154to155" to="155"/>
<edge from="155" id="155to156" to="156"/>
<edge from="156" id="156to157" to="157"/>
<edge from="157" id="157to158" to="158"/>
<edge from="158" id="158to159" to="159"/>
<edge from="159" id="159to160" to="160"/>
<edge from="160" id="160to161" to="161"/>
<edge from="161" id="161to162" to="162"/>
<edge from="162" id="162to163" to="163"/>
<edge from="163" id="163to164" to="164"/>
<edge from="164" id="164to165" to="165"/>
<edge from="165" id="165to166" to="166"/>
<edge from="166" id="166to167" to="167"/>
<edge from="167" id="167to168" to="168"/>
<edge from="168" id="168to169" to="169"/>
<edge from="169" id="169to170" to="170"/>
<edge from="170" id="170to171" to="171"/>
<edge from="171" id="171to172" to="172"/>
<edge from="172" id="172to173" to="173"/>
<edge from="173" id="173to174" to="174"/>
<edge from="174" id="174to175" to="175"/>
<edge from="175" id="175to176" to="176"/>
<edge from="176" id="176to177" to="177"/>
<edge from="177" id="177to178" to="178"/>
<edge from="178" id="178to179" to="179"/>
<edge from="179" id="179to180" to="180"/>
<edge from="180" id="180to181" to="181"/>
<edge from="181" id="181to182" to="182"/>
<edge from="182" id="182to183" to="183"/>
<edge from="183" id="183to184" to="184"/>
<edge from="184" id="184to185" to="185"/>
<edge from="185" id="185to186" to="186"/>
<edge from="186" id="186to187" to="187"/>
<edge from="187" id="187to188" to="188"/>
<edge from="188" id="188to189" to="189"/>
<edge from="189" id="189to190" to="190"/>
<edge from="190" id="190to191" to="191"/>
<edge from="191" id="191to192" to="192"/>
<edge from="192" id="192to193" to="193"/>
<edge from="193" id="193to194" to="194"/>
<edge from="194" id="194to195" to="195"/>
<edge from="195" id="195to196" to="196"/>
<edge from="196" id="196to197" to="197"/>
<edge from="197" id="197to198" to="198"/>
<edge from="198" id="198to199" to="199"/>
<edge from="199" id="199to200" to="200"/>
<edge from="200" id="200to201" to="201"/>
<edge from="201" id="201to202" to="202"/>
<edge from="202" id="202to203" to="203"/>
<edge from="203" id="203to204" to="204"/>
<edge from="204" id="204to205" to="205"/>
<edge from="205" id="205to206" to="206"/>
<edge from="206" id="206to207" to="207"/>
<edge from="207" id="207to208" to="208"/>
<edge from="208" id="208to209" to="209"/>
<edge from="209" id="209to210" to="210"/>
<edge from="210" id="210to211" to="211"/>
<edge from="211" id="211to212" to="212"/>
<edge from="212" id="212to213" to="213"/>
<edge from="213" id="213to214" to="214"/>
<edge from="214" id="214to215" to="215"/>
<edge from="215" id="215to216" to="216"/>
<edge from="216" id="216to217" to="217"/>
<edge from="217" id="217to218" to="218"/>
<edge from="218" id="218to219" to="219"/>
<edge from="219" id="219to220" to="220"/>
<edge from="220" id="220to221" to="221"/>
<edge from="221" id="221to222" to="222"/>
<edge from="222" id="222to223" to="223"/>
<edge from="223" id="223to224" to="224"/>
<edge from="224" id="224to225" to="225"/>
<edge from="225" id="225to226" to="226"/>
<edge from="226" id="226to227" to="227"/>
<edge from="227" id="227to228" to="228"/>
<edge from="228" id="228to229" to="229"/>
<edge from="229" id="229to230" to="230"/>
<edge from="230" id="230to231" to="231"/>
<edge from="231" id="231to232" to="232"/>
<edge from="232" id="232to233" to="233"/>
<edge from="233" id="233to234" to="234"/>
<edge from="234" id="234to235" to="235"/>
<edge from="235" id="235to236" to="236"/>
<edge from="236" id="236to237" to="237"/>
<edge from="237" id="237to238" to="238"/>
<edge from="238" id="238to239" to="239"/>
<edge from="239" id="239to240" to="240"/>
<edge from="240" id="240to241" to="241"/>
<edge from="241" id="241to242" to="242"/>
<edge from="242" id="242to243" to="243"/>
<edge from="243" id="243to244" to="244"/>
<edge from="244" id="244to245" to="245"/>
<edge from="245" id="245to246" to="246"/>
<edge from="246" id="246to247" to="247"/>
<edge from="247" id="247to248" to="248"/>
<edge from="248" id="248to249" to="249"/>
<edge from="249" id="249to250" to="250"/>
<edge from="250" id="250to251" to="251"/>
<edge from="251" id="251to252" to="252"/>
<edge from="252" id="252to253" to="253"/>
<edge from="253" id="253to254" to="254"/>
<edge from="254" id="254to255" to="255"/>
<edge from="255" id="255to256" to="256"/>
<edge from="256" id="256to257" to="257"/>
<edge from="257" id="257to258" to="258"/>
<edge from="258" id="258to259" to="259"/>
<edge from="259" id="259to260" to="260"/>
<edge from="260" id="260to1" to="1"/>
</edges>
