<nodes>
<node id="1" x="0" y="0"/>
<node id="2" x="100.0" y="0.0"/>
<node id="3" x="134.729635533" y="3.03844939756"/>
<node id="4" x="168.404028665" y="12.0614758428"/>
<node id="5" x="200.0" y="26.7949192431"/>
<node id="6" x="228.557521937" y="46.7911113762"/>
<node id="7" x="253.208888624" y="71.4424780627"/>
<node id="8" x="299.969852711" y="203.472464099"/>
<node id="9" x="305.335696027" y="210.340430352"/>
<node id="10" x="311.81262995" y="216.172287851"/>
<node id="11" x="319.203856121" y="220.790838558"/>
<node id="12" x="327.284795872" y="224.055750147"/>
<node id="13" x="335.809913938" y="225.867819931"/>
<node id="14" x="344.52017892" y="226.171989086"/>
<node id="15" x="353.150933825" y="224.959015588"/>
<node id="16" x="361.439937532" y="222.265755021"/>
<node id="17" x="369.135332859" y="218.174040746"/>
<node id="18" x="376.003299111" y="212.80819743"/>
<node id="19" x="381.83515661" y="206.331263506"/>
<node id="20" x="386.453707317" y="198.940037336"/>
<node id="21" x="389.718618906" y="190.859097585"/>
<node id="22" x="391.861108814" y="178.29610044"/>
<node id="23" x="383.526363684" y="175.747913132"/>
<node id="24" x="375.760730144" y="171.791125211"/>
<node id="25" x="368.800163037" y="166.545961677"/>
<node id="26" x="362.856155675" y="160.17179417"/>
<node id="27" x="358.109313712" y="152.862298543"/>
<node id="28" x="354.70386754" y="144.839570122"/>
<node id="29" x="352.743289918" y="136.347375451"/>
<node id="30" x="352.287152004" y="127.643745568"/>
<node id="31" x="353.349313319" y="118.993135863"/>
<node id="32" x="355.897500627" y="110.658390733"/>
<node id="33" x="359.854288547" y="102.892757192"/>
<node id="34" x="365.099452081" y="95.9321900855"/>
<node id="35" x="371.473619589" y="89.9881827231"/>
<node id="36" x="378.783115216" y="85.2413407605"/>
<node id="37" x="386.805843636" y="81.8358945886"/>
<node id="38" x="395.298038307" y="79.8753169663"/>
<node id="39" x="404.00166819" y="79.4191790524"/>
<node id="40" x="412.652277896" y="80.4813403667"/>
<node id="41" x="420.987023026" y="83.0295276751"/>
<node id="42" x="428.752656567" y="86.9863155956"/>
<node id="43" x="435.713223673" y="92.2314791295"/>
<node id="44" x="441.657231036" y="98.6056466371"/>
<node id="45" x="446.404072998" y="105.915142264"/>
<node id="46" x="449.80951917" y="113.937870685"/>
<node id="47" x="452.120898433" y="133.071253761"/>
<node id="48" x="479.960271371" y="230.158685051"/>
<node id="49" x="481.521962612" y="234.227029825"/>
<node id="50" x="483.76638891" y="237.962382463"/>
<node id="51" x="486.625354508" y="241.251246164"/>
<node id="52" x="490.011991182" y="243.99369047"/>
<node id="53" x="493.823397692" y="246.106387597"/>
<node id="54" x="497.943766379" y="247.525144313"/>
<node id="55" x="502.247901926" y="248.206852412"/>
<node id="56" x="506.605025351" y="248.13079854"/>
<node id="57" x="510.882747665" y="247.299293554"/>
<node id="58" x="514.951092439" y="245.737602313"/>
<node id="59" x="518.686445077" y="243.493176015"/>
<node id="60" x="521.975308778" y="240.634210417"/>
<node id="61" x="524.717753083" y="237.247573742"/>
<node id="62" x="526.83045021" y="233.436167233"/>
<node id="63" x="528.249206926" y="229.315798546"/>
<node id="64" x="528.930915026" y="225.011662999"/>
<node id="65" x="528.854861153" y="220.654539574"/>
<node id="66" x="528.954242516" y="224.637842784"/>
<node id="67" x="501.390506934" y="128.511673191"/>
<node id="68" x="499.727496963" y="119.956228563"/>
<node id="69" x="499.575389218" y="111.241981713"/>
<node id="70" x="500.938805417" y="102.63371062"/>
<node id="71" x="503.776318849" y="94.392973246"/>
<node id="72" x="508.001713103" y="86.7701602262"/>
<node id="73" x="513.486601714" y="79.9968868768"/>
<node id="74" x="520.064329116" y="74.278955681"/>
<node id="75" x="527.535034392" y="69.7901030848"/>
<node id="76" x="535.67172394" y="66.6667206028"/>
<node id="77" x="544.227168568" y="65.0037106313"/>
<node id="78" x="552.941415418" y="64.8516028868"/>
<node id="79" x="561.549686511" y="66.215019086"/>
<node id="80" x="569.790423885" y="69.0525325176"/>
<node id="81" x="577.413236905" y="73.277926772"/>
<node id="82" x="584.186510254" y="78.7628153828"/>
<node id="83" x="589.90444145" y="85.3405427851"/>
<node id="84" x="594.393294046" y="92.8112480603"/>
<node id="85" x="597.516676528" y="100.947937609"/>
<node id="86" x="599.179686499" y="109.503382236"/>
<node id="87" x="599.331794244" y="118.217629087"/>
<node id="88" x="599.351323684" y="117.926107326"/>
<node id="89" x="581.207181514" y="190.698286797"/>
<node id="90" x="579.843765314" y="199.306557889"/>
<node id="91" x="579.995873059" y="208.02080474"/>
<node id="92" x="581.65888303" y="216.576249368"/>
<node id="93" x="584.782265512" y="224.712938916"/>
<node id="94" x="589.271118109" y="232.183644191"/>
<node id="95" x="594.989049304" y="238.761371594"/>
<node id="96" x="601.762322654" y="244.246260204"/>
<node id="97" x="609.385135674" y="248.471654459"/>
<node id="98" x="617.625873047" y="251.30916789"/>
<node id="99" x="626.23414414" y="252.67258409"/>
<node id="100" x="634.948390991" y="252.520476345"/>
<node id="101" x="643.503835618" y="250.857466374"/>
<node id="102" x="651.640525167" y="247.734083892"/>
<node id="103" x="659.111230442" y="243.245231295"/>
<node id="104" x="665.688957844" y="237.5273001"/>
<node id="105" x="671.173846455" y="230.75402675"/>
<node id="106" x="675.399240709" y="223.13121373"/>
<node id="107" x="679.646825321" y="205.534564834"/>
<node id="108" x="691.742920101" y="157.01977852"/>
<node id="109" x="694.580433532" y="148.779041147"/>
<node id="110" x="698.805827787" y="141.156228127"/>
<node id="111" x="704.290716397" y="134.382954777"/>
<node id="112" x="710.8684438" y="128.665023582"/>
<node id="113" x="718.339149075" y="124.176170985"/>
<node id="114" x="726.475838623" y="121.052788503"/>
<node id="115" x="735.031283251" y="119.389778532"/>
<node id="116" x="743.745530102" y="119.237670787"/>
<node id="117" x="752.353801194" y="120.601086987"/>
<node id="118" x="760.594538568" y="123.438600418"/>
<node id="119" x="768.217351588" y="127.663994673"/>
<node id="120" x="774.990624937" y="133.148883283"/>
<node id="121" x="780.708556133" y="139.726610686"/>
<node id="122" x="785.197408729" y="147.197315961"/>
<node id="123" x="788.320791211" y="155.334005509"/>
<node id="124" x="789.983801183" y="163.889450137"/>
<node id="125" x="790.135908927" y="172.603696988"/>
<node id="126" x="788.772492728" y="181.21196808"/>
<node id="127" x="785.934979296" y="189.452705454"/>
<node id="128" x="790.164943339" y="172.160163449"/>
<node id="129" x="717.469865888" y="279.935047881"/>
<node id="130" x="715.357168761" y="283.746454391"/>
<node id="131" x="713.938412045" y="287.866823077"/>
<node id="132" x="713.256703946" y="292.170958624"/>
<node id="133" x="713.332757818" y="296.528082049"/>
<node id="134" x="714.164262804" y="300.805804363"/>
<node id="135" x="715.725954045" y="304.874149137"/>
<node id="136" x="717.970380343" y="308.609501775"/>
<node id="137" x="720.829345941" y="311.898365476"/>
<node id="138" x="724.215982615" y="314.640809781"/>
<node id="139" x="728.027389125" y="316.753506908"/>
<node id="140" x="732.147757812" y="318.172263624"/>
<node id="141" x="763.179104543" y="294.828519225"/>
<node id="142" x="595.282955323" y="-49.4096005073"/>
<node id="143" x="585.912807877" y="-73.8196691531"/>
<node id="144" x="580.923777962" y="-99.4860030355"/>
<node id="145" x="580.467454728" y="-125.628743587"/>
<node id="146" x="584.557703326" y="-151.453556866"/>
<node id="147" x="593.070243621" y="-176.175768987"/>
<node id="148" x="605.746426384" y="-199.044208046"/>
<node id="149" x="622.201092217" y="-219.364028095"/>
<node id="150" x="641.934274424" y="-236.517821682"/>
<node id="151" x="664.346390249" y="-249.984379471"/>
<node id="152" x="688.756458895" y="-259.354526916"/>
<node id="153" x="714.422792777" y="-264.343556831"/>
<node id="154" x="740.565533329" y="-264.799880065"/>
<node id="155" x="766.390346607" y="-260.709631467"/>
<node id="156" x="791.112558729" y="-252.197091172"/>
<node id="157" x="879.963724044" y="-108.72459481"/>
<node id="158" x="887.511632775" y="-104.366807673"/>
<node id="159" x="894.188150017" y="-98.7645445174"/>
<node id="160" x="899.790413172" y="-92.0880272757"/>
<node id="161" x="904.148200309" y="-84.5401185451"/>
<node id="162" x="907.129102272" y="-76.3501577132"/>
<node id="163" x="908.642545862" y="-67.7669925955"/>
<node id="164" x="908.642545862" y="-59.0514183207"/>
<node id="165" x="907.129102272" y="-50.468253203"/>
<node id="166" x="904.148200309" y="-42.2782923711"/>
<node id="167" x="899.790413172" y="-34.7303836405"/>
<node id="168" x="894.188150017" y="-28.0538663988"/>
<node id="169" x="887.511632775" y="-22.4516032436"/>
<node id="170" x="908.793611557" y="-61.4297096921"/>
<node id="171" x="863.506159173" y="-35.2829868678"/>
<node id="172" x="823.447055723" y="-1.66940793705"/>
<node id="173" x="789.833476792" y="38.3896955136"/>
<node id="174" x="763.686753968" y="83.6771478967"/>
<node id="175" x="745.801342192" y="132.816912888"/>
<node id="176" x="736.720680651" y="184.315903595"/>
<node id="177" x="736.720680651" y="236.609349243"/>
<node id="178" x="1335.49869888" y="217.407283202"/>
<node id="179" x="1323.39000563" y="204.868364285"/>
<node id="180" x="1309.28791022" y="194.622592237"/>
<node id="181" x="1293.62089769" y="186.981279657"/>
<node id="182" x="1276.86500227" y="182.176603962"/>
<node id="183" x="1259.52934338" y="180.354552791"/>
<node id="184" x="1242.14065623" y="181.570488248"/>
<node id="185" x="1225.22728729" y="185.787464747"/>
<node id="186" x="1209.30314071" y="192.877351593"/>
<node id="187" x="1194.85206363" y="202.624726161"/>
<node id="188" x="1357.73771043" y="283.385025427"/>
<node id="189" x="1373.66185701" y="276.295138581"/>
<node id="190" x="1390.57522595" y="272.078162081"/>
<node id="191" x="1407.9639131" y="270.862226625"/>
<node id="192" x="1425.299572" y="272.684277796"/>
<node id="193" x="1442.05546741" y="277.488953491"/>
<node id="194" x="1457.72247995" y="285.130266071"/>
<node id="195" x="1471.82457536" y="295.376038119"/>
<node id="196" x="1483.9332686" y="307.914957036"/>
<node id="197" x="1493.68064317" y="322.366034116"/>
<node id="198" x="1500.77053002" y="338.290180695"/>
<node id="199" x="1504.98750652" y="355.203549637"/>
<node id="200" x="1506.20344197" y="372.592236785"/>
<node id="201" x="1504.3813908" y="389.927895679"/>
<node id="202" x="1499.57671511" y="406.683791095"/>
<node id="203" x="1491.93540253" y="422.350803632"/>
<node id="204" x="1481.68963048" y="436.45289904"/>
<node id="205" x="1469.15071156" y="448.561592287"/>
<node id="206" x="1506.06838744" y="376.327362656"/>
<node id="207" x="1491.61731036" y="386.074737224"/>
<node id="208" x="1479.07839145" y="398.183430471"/>
<node id="209" x="1468.8326194" y="412.285525879"/>
<node id="210" x="1461.19130682" y="427.952538415"/>
<node id="211" x="1456.38663112" y="444.708433832"/>
<node id="212" x="1454.56457995" y="462.044092726"/>
<node id="213" x="1455.78051541" y="479.432779874"/>
<node id="214" x="1459.99749191" y="496.346148815"/>
<node id="215" x="1467.08737876" y="512.270295394"/>
<node id="216" x="1476.83475332" y="526.721372475"/>
<node id="217" x="1488.94344657" y="539.260291392"/>
<node id="218" x="1503.04554198" y="549.50606344"/>
<node id="219" x="1518.71255451" y="557.147376019"/>
<node id="220" x="1535.46844993" y="561.952051715"/>
<node id="221" x="1552.80410883" y="563.774102885"/>
<node id="222" x="1570.19279597" y="562.558167429"/>
<node id="223" x="1587.10616491" y="558.34119093"/>
<node id="224" x="1603.03031149" y="551.251304084"/>
<node id="225" x="1654.3836645" y="469.543422609"/>
<node id="226" x="1795.33755761" y="418.24040111"/>
<node id="227" x="1983.27608177" y="349.836372445"/>
<node id="228" x="1999.60816244" y="345.460204619"/>
<node id="229" x="2016.45203567" y="343.986556661"/>
<node id="230" x="2033.29590891" y="345.460204619"/>
<node id="231" x="2049.62798958" y="349.836372445"/>
<node id="232" x="2064.95203567" y="356.982092494"/>
<node id="233" x="2078.80243381" y="366.680245679"/>
<node id="234" x="2090.75834666" y="378.636158522"/>
<node id="235" x="2100.45649984" y="392.486556661"/>
<node id="236" x="2107.60221989" y="407.810602759"/>
<node id="237" x="2111.97838772" y="424.142683428"/>
<node id="238" x="2113.45203567" y="440.986556661"/>
<node id="239" x="2111.97838772" y="457.830429895"/>
<node id="240" x="2107.60221989" y="474.162510564"/>
<node id="241" x="2100.45649984" y="489.486556661"/>
<node id="242" x="2090.75834666" y="503.336954801"/>
<node id="243" x="2078.80243381" y="515.292867644"/>
<node id="244" x="2064.95203567" y="524.991020828"/>
<node id="245" x="2113.30625921" y="446.302512181"/>
<node id="246" x="1853.95109587" y="540.700071739"/>
</nodes>
