<routes>
<vType accel="0.5" decel="5.0" id="Car" length="2.0" maxSpeed="1.0" sigma="0.0" />
