<?xml version="1.0" encoding="UTF-8"?>

<!-- generated on Mon Nov 23 16:51:50 2015 by SUMO netconvert Version 0.24.0
<?xml version="1.0" encoding="UTF-8"?>

<configuration xmlns:xsi="http://www.w3.org/2001/XMLSchema-instance" xsi:noNamespaceSchemaLocation="http://sumo.dlr.de/xsd/netconvertConfiguration.xsd">

    <input>
        <node-files value="coursechanger.nod.xml"/>
        <edge-files value="coursechanger.edg.xml"/>
    </input>

    <output>
        <output-file value="coursechanger.net.xml"/>
    </output>

</configuration>
-->

<net version="0.13" xmlns:xsi="http://www.w3.org/2001/XMLSchema-instance" xsi:noNamespaceSchemaLocation="http://sumo.dlr.de/xsd/net_file.xsd">

    <location netOffset="0.00,264.80" convBoundary="0.00,0.00,2113.45,828.57" origBoundary="0.00,-264.80,2113.45,563.77" projParameter="!"/>

    <edge id=":1_0" function="internal">
        <lane id=":1_0_0" index="0" speed="13.90" length="4.79" shape="-0.34,266.41 -1.48,265.47 -1.80,264.61 -1.31,263.84 0.00,263.15"/>
    </edge>
    <edge id=":10_0" function="internal">
        <lane id=":10_0_0" index="0" speed="13.90" length="1.42" shape="299.97,466.62 301.26,467.24"/>
    </edge>
    <edge id=":100_0" function="internal">
        <lane id=":100_0_0" index="0" speed="13.90" length="0.28" shape="590.54,495.89 590.70,496.12"/>
    </edge>
    <edge id=":101_0" function="internal">
        <lane id=":101_0_0" index="0" speed="13.90" length="0.28" shape="596.05,502.26 596.25,502.46"/>
    </edge>
    <edge id=":102_0" function="internal">
        <lane id=":102_0_0" index="0" speed="13.90" length="0.28" shape="602.58,507.58 602.81,507.74"/>
    </edge>
    <edge id=":103_0" function="internal">
        <lane id=":103_0_0" index="0" speed="13.90" length="0.28" shape="609.94,511.69 610.19,511.80"/>
    </edge>
    <edge id=":104_0" function="internal">
        <lane id=":104_0_0" index="0" speed="13.90" length="0.28" shape="617.89,514.46 618.16,514.52"/>
    </edge>
    <edge id=":105_0" function="internal">
        <lane id=":105_0_0" index="0" speed="13.90" length="0.28" shape="626.21,515.80 626.49,515.82"/>
    </edge>
    <edge id=":106_0" function="internal">
        <lane id=":106_0_0" index="0" speed="13.90" length="0.28" shape="634.64,515.68 634.91,515.65"/>
    </edge>
    <edge id=":107_0" function="internal">
        <lane id=":107_0_0" index="0" speed="13.90" length="0.28" shape="642.91,514.09 643.18,514.02"/>
    </edge>
    <edge id=":108_0" function="internal">
        <lane id=":108_0_0" index="0" speed="13.90" length="0.28" shape="650.78,511.10 651.03,510.97"/>
    </edge>
    <edge id=":109_0" function="internal">
        <lane id=":109_0_0" index="0" speed="13.90" length="0.28" shape="658.02,506.78 658.24,506.61"/>
    </edge>
    <edge id=":11_0" function="internal">
        <lane id=":11_0_0" index="0" speed="13.90" length="0.28" shape="306.46,473.90 306.65,474.10"/>
    </edge>
    <edge id=":110_0" function="internal">
        <lane id=":110_0_0" index="0" speed="13.90" length="0.28" shape="664.39,501.27 664.59,501.07"/>
    </edge>
    <edge id=":111_0" function="internal">
        <lane id=":111_0_0" index="0" speed="13.90" length="0.28" shape="669.71,494.74 669.87,494.51"/>
    </edge>
    <edge id=":112_0" function="internal">
        <lane id=":112_0_0" index="0" speed="13.90" length="0.43" shape="673.74,487.52 673.90,487.12"/>
    </edge>
    <edge id=":113_0" function="internal">
        <lane id=":113_0_0" index="0" speed="13.90" length="0.10" shape="678.04,469.94 678.04,469.94"/>
    </edge>
    <edge id=":114_0" function="internal">
        <lane id=":114_0_0" index="0" speed="13.90" length="2.00" shape="690.15,421.38 691.74,420.17"/>
    </edge>
    <edge id=":115_0" function="internal">
        <lane id=":115_0_0" index="0" speed="13.90" length="1.31" shape="691.74,420.17 690.91,419.16"/>
    </edge>
    <edge id=":116_0" function="internal">
        <lane id=":116_0_0" index="0" speed="13.90" length="0.28" shape="693.02,413.04 693.14,412.78"/>
    </edge>
    <edge id=":117_0" function="internal">
        <lane id=":117_0_0" index="0" speed="13.90" length="0.28" shape="697.36,405.15 697.52,404.92"/>
    </edge>
    <edge id=":118_0" function="internal">
        <lane id=":118_0_0" index="0" speed="13.90" length="0.28" shape="703.01,398.14 703.20,397.94"/>
    </edge>
    <edge id=":119_0" function="internal">
        <lane id=":119_0_0" index="0" speed="13.90" length="0.28" shape="709.79,392.22 710.01,392.05"/>
    </edge>
    <edge id=":12_0" function="internal">
        <lane id=":12_0_0" index="0" speed="13.90" length="0.28" shape="312.71,479.56 312.93,479.72"/>
    </edge>
    <edge id=":120_0" function="internal">
        <lane id=":120_0_0" index="0" speed="13.90" length="0.28" shape="717.49,387.56 717.74,387.44"/>
    </edge>
    <edge id=":121_0" function="internal">
        <lane id=":121_0_0" index="0" speed="13.90" length="0.28" shape="725.89,384.31 726.16,384.23"/>
    </edge>
    <edge id=":122_0" function="internal">
        <lane id=":122_0_0" index="0" speed="13.90" length="0.28" shape="734.72,382.57 735.00,382.54"/>
    </edge>
    <edge id=":123_0" function="internal">
        <lane id=":123_0_0" index="0" speed="13.90" length="0.28" shape="743.72,382.39 744.00,382.41"/>
    </edge>
    <edge id=":124_0" function="internal">
        <lane id=":124_0_0" index="0" speed="13.90" length="0.28" shape="752.62,383.77 752.89,383.84"/>
    </edge>
    <edge id=":125_0" function="internal">
        <lane id=":125_0_0" index="0" speed="13.90" length="0.28" shape="761.14,386.68 761.39,386.79"/>
    </edge>
    <edge id=":126_0" function="internal">
        <lane id=":126_0_0" index="0" speed="13.90" length="0.28" shape="769.02,391.02 769.25,391.18"/>
    </edge>
    <edge id=":127_0" function="internal">
        <lane id=":127_0_0" index="0" speed="13.90" length="0.28" shape="776.03,396.67 776.23,396.86"/>
    </edge>
    <edge id=":128_0" function="internal">
        <lane id=":128_0_0" index="0" speed="13.90" length="0.28" shape="781.96,403.45 782.12,403.67"/>
    </edge>
    <edge id=":129_0" function="internal">
        <lane id=":129_0_0" index="0" speed="13.90" length="0.28" shape="786.61,411.15 786.74,411.40"/>
    </edge>
    <edge id=":13_0" function="internal">
        <lane id=":13_0_0" index="0" speed="13.90" length="0.28" shape="319.84,484.04 320.09,484.17"/>
    </edge>
    <edge id=":130_0" function="internal">
        <lane id=":130_0_0" index="0" speed="13.90" length="0.28" shape="789.86,419.55 789.94,419.81"/>
    </edge>
    <edge id=":131_0" function="internal">
        <lane id=":131_0_0" index="0" speed="13.90" length="0.28" shape="791.60,428.38 791.63,428.66"/>
    </edge>
    <edge id=":132_0" function="internal">
        <lane id=":132_0_0" index="0" speed="13.90" length="0.28" shape="791.79,437.38 791.77,437.66"/>
    </edge>
    <edge id=":133_0" function="internal">
        <lane id=":133_0_0" index="0" speed="13.90" length="0.28" shape="790.40,446.27 790.33,446.54"/>
    </edge>
    <edge id=":134_0" function="internal">
        <lane id=":134_0_0" index="0" speed="13.90" length="4.81" shape="787.47,454.86 786.31,455.79 785.40,455.93 784.74,455.29 784.33,453.86"/>
    </edge>
    <edge id=":135_0" function="internal">
        <lane id=":135_0_0" index="0" speed="13.90" length="9.50" shape="788.49,436.85 787.88,440.19 788.15,441.51 789.32,440.82 791.37,438.12"/>
    </edge>
    <edge id=":136_0" function="internal">
        <lane id=":136_0_0" index="0" speed="13.90" length="2.62" shape="719.31,544.95 717.47,543.08"/>
    </edge>
    <edge id=":137_0" function="internal">
        <lane id=":137_0_0" index="0" speed="13.90" length="2.80" shape="717.47,543.08 718.95,545.46"/>
    </edge>
    <edge id=":138_0" function="internal">
        <lane id=":138_0_0" index="0" speed="13.90" length="0.28" shape="716.94,549.10 716.82,549.35"/>
    </edge>
    <edge id=":139_0" function="internal">
        <lane id=":139_0_0" index="0" speed="13.90" length="0.28" shape="715.59,552.94 715.52,553.21"/>
    </edge>
    <edge id=":14_0" function="internal">
        <lane id=":14_0_0" index="0" speed="13.90" length="0.28" shape="327.64,487.22 327.91,487.30"/>
    </edge>
    <edge id=":140_0" function="internal">
        <lane id=":140_0_0" index="0" speed="13.90" length="0.28" shape="714.93,556.95 714.91,557.23"/>
    </edge>
    <edge id=":141_0" function="internal">
        <lane id=":141_0_0" index="0" speed="13.90" length="0.28" shape="714.98,561.01 715.01,561.29"/>
    </edge>
    <edge id=":142_0" function="internal">
        <lane id=":142_0_0" index="0" speed="13.90" length="0.28" shape="715.73,565.01 715.81,565.28"/>
    </edge>
    <edge id=":143_0" function="internal">
        <lane id=":143_0_0" index="0" speed="13.90" length="0.28" shape="717.16,568.82 717.29,569.07"/>
    </edge>
    <edge id=":144_0" function="internal">
        <lane id=":144_0_0" index="0" speed="13.90" length="0.28" shape="719.24,572.32 719.40,572.54"/>
    </edge>
    <edge id=":145_0" function="internal">
        <lane id=":145_0_0" index="0" speed="13.90" length="0.28" shape="721.89,575.40 722.09,575.59"/>
    </edge>
    <edge id=":146_0" function="internal">
        <lane id=":146_0_0" index="0" speed="13.90" length="0.28" shape="725.03,577.98 725.26,578.14"/>
    </edge>
    <edge id=":147_0" function="internal">
        <lane id=":147_0_0" index="0" speed="13.90" length="0.28" shape="728.58,579.97 728.83,580.09"/>
    </edge>
    <edge id=":148_0" function="internal">
        <lane id=":148_0_0" index="0" speed="13.90" length="1.57" shape="731.05,580.85 731.45,580.94 731.83,580.93 732.19,580.82 732.54,580.62"/>
    </edge>
    <edge id=":149_0" function="internal">
        <lane id=":149_0_0" index="0" speed="13.90" length="2.24" shape="760.04,559.92 760.47,559.50 760.69,559.03 760.71,558.51 760.52,557.94"/>
    </edge>
    <edge id=":15_0" function="internal">
        <lane id=":15_0_0" index="0" speed="13.90" length="0.28" shape="335.87,488.99 336.15,489.03"/>
    </edge>
    <edge id=":150_0" function="internal">
        <lane id=":150_0_0" index="0" speed="13.90" length="2.76" shape="593.76,216.04 595.28,213.74"/>
    </edge>
    <edge id=":151_0" function="internal">
        <lane id=":151_0_0" index="0" speed="13.90" length="2.28" shape="595.28,213.74 593.35,214.95"/>
    </edge>
    <edge id=":152_0" function="internal">
        <lane id=":152_0_0" index="0" speed="13.90" length="0.28" shape="584.37,191.57 584.29,191.30"/>
    </edge>
    <edge id=":153_0" function="internal">
        <lane id=":153_0_0" index="0" speed="13.90" length="0.28" shape="579.30,165.62 579.27,165.35"/>
    </edge>
    <edge id=":154_0" function="internal">
        <lane id=":154_0_0" index="0" speed="13.90" length="0.28" shape="578.82,139.20 578.84,138.92"/>
    </edge>
    <edge id=":155_0" function="internal">
        <lane id=":155_0_0" index="0" speed="13.90" length="0.28" shape="582.93,113.08 583.00,112.81"/>
    </edge>
    <edge id=":156_0" function="internal">
        <lane id=":156_0_0" index="0" speed="13.90" length="0.28" shape="591.51,88.08 591.63,87.83"/>
    </edge>
    <edge id=":157_0" function="internal">
        <lane id=":157_0_0" index="0" speed="13.90" length="0.28" shape="604.31,64.95 604.46,64.72"/>
    </edge>
    <edge id=":158_0" function="internal">
        <lane id=":158_0_0" index="0" speed="13.90" length="0.28" shape="620.92,44.39 621.12,44.19"/>
    </edge>
    <edge id=":159_0" function="internal">
        <lane id=":159_0_0" index="0" speed="13.90" length="0.28" shape="640.86,27.03 641.08,26.87"/>
    </edge>
    <edge id=":16_0" function="internal">
        <lane id=":16_0_0" index="0" speed="13.90" length="0.28" shape="344.29,489.31 344.57,489.30"/>
    </edge>
    <edge id=":160_0" function="internal">
        <lane id=":160_0_0" index="0" speed="13.90" length="0.28" shape="663.50,13.40 663.75,13.28"/>
    </edge>
    <edge id=":161_0" function="internal">
        <lane id=":161_0_0" index="0" speed="13.90" length="0.28" shape="688.17,3.90 688.44,3.83"/>
    </edge>
    <edge id=":162_0" function="internal">
        <lane id=":162_0_0" index="0" speed="13.90" length="0.28" shape="714.11,-1.16 714.39,-1.19"/>
    </edge>
    <edge id=":163_0" function="internal">
        <lane id=":163_0_0" index="0" speed="13.90" length="0.28" shape="740.54,-1.65 740.82,-1.63"/>
    </edge>
    <edge id=":164_0" function="internal">
        <lane id=":164_0_0" index="0" speed="13.90" length="0.28" shape="766.65,2.46 766.92,2.53"/>
    </edge>
    <edge id=":165_0" function="internal">
        <lane id=":165_0_0" index="0" speed="13.90" length="1.07" shape="791.67,11.05 792.51,11.72"/>
    </edge>
    <edge id=":166_0" function="internal">
        <lane id=":166_0_0" index="0" speed="13.90" length="1.48" shape="879.96,152.94 879.96,154.43"/>
    </edge>
    <edge id=":167_0" function="internal">
        <lane id=":167_0_0" index="0" speed="13.90" length="0.84" shape="879.96,154.43 880.78,154.64"/>
    </edge>
    <edge id=":168_0" function="internal">
        <lane id=":168_0_0" index="0" speed="13.90" length="0.28" shape="888.34,159.01 888.57,159.17"/>
    </edge>
    <edge id=":169_0" function="internal">
        <lane id=":169_0_0" index="0" speed="13.90" length="0.28" shape="895.25,164.77 895.45,164.97"/>
    </edge>
    <edge id=":17_0" function="internal">
        <lane id=":17_0_0" index="0" speed="13.90" length="0.28" shape="352.64,488.16 352.91,488.10"/>
    </edge>
    <edge id=":170_0" function="internal">
        <lane id=":170_0_0" index="0" speed="13.90" length="0.28" shape="901.06,171.65 901.22,171.88"/>
    </edge>
    <edge id=":171_0" function="internal">
        <lane id=":171_0_0" index="0" speed="13.90" length="0.28" shape="905.58,179.44 905.70,179.69"/>
    </edge>
    <edge id=":172_0" function="internal">
        <lane id=":172_0_0" index="0" speed="13.90" length="0.28" shape="908.68,187.89 908.75,188.16"/>
    </edge>
    <edge id=":173_0" function="internal">
        <lane id=":173_0_0" index="0" speed="13.90" length="0.28" shape="910.27,196.75 910.29,197.03"/>
    </edge>
    <edge id=":174_0" function="internal">
        <lane id=":174_0_0" index="0" speed="13.90" length="0.28" shape="910.29,205.75 910.27,206.03"/>
    </edge>
    <edge id=":175_0" function="internal">
        <lane id=":175_0_0" index="0" speed="13.90" length="0.28" shape="908.75,214.62 908.68,214.89"/>
    </edge>
    <edge id=":176_0" function="internal">
        <lane id=":176_0_0" index="0" speed="13.90" length="0.28" shape="905.70,223.09 905.58,223.34"/>
    </edge>
    <edge id=":177_0" function="internal">
        <lane id=":177_0_0" index="0" speed="13.90" length="0.28" shape="901.22,230.90 901.06,231.13"/>
    </edge>
    <edge id=":178_0" function="internal">
        <lane id=":178_0_0" index="0" speed="13.90" length="0.28" shape="895.45,237.81 895.25,238.01"/>
    </edge>
    <edge id=":179_0" function="internal">
        <lane id=":179_0_0" index="0" speed="13.90" length="9.06" shape="888.37,243.78 885.78,245.70 884.51,246.01 884.56,244.71 885.94,241.79"/>
    </edge>
    <edge id=":18_0" function="internal">
        <lane id=":18_0_0" index="0" speed="13.90" length="0.28" shape="360.66,485.58 360.92,485.48"/>
    </edge>
    <edge id=":180_0" function="internal">
        <lane id=":180_0_0" index="0" speed="13.90" length="1.66" shape="907.36,202.55 908.79,201.72"/>
    </edge>
    <edge id=":181_0" function="internal">
        <lane id=":181_0_0" index="0" speed="13.90" length="3.14" shape="908.79,201.72 909.78,204.71"/>
    </edge>
    <edge id=":182_0" function="internal">
        <lane id=":182_0_0" index="0" speed="13.90" length="0.28" shape="864.58,230.80 864.35,230.96"/>
    </edge>
    <edge id=":183_0" function="internal">
        <lane id=":183_0_0" index="0" speed="13.90" length="0.28" shape="824.73,264.21 824.53,264.41"/>
    </edge>
    <edge id=":184_0" function="internal">
        <lane id=":184_0_0" index="0" speed="13.90" length="0.28" shape="791.28,304.03 791.12,304.26"/>
    </edge>
    <edge id=":185_0" function="internal">
        <lane id=":185_0_0" index="0" speed="13.90" length="0.28" shape="765.26,349.06 765.14,349.31"/>
    </edge>
    <edge id=":186_0" function="internal">
        <lane id=":186_0_0" index="0" speed="13.90" length="0.28" shape="747.45,397.91 747.38,398.18"/>
    </edge>
    <edge id=":187_0" function="internal">
        <lane id=":187_0_0" index="0" speed="13.90" length="0.28" shape="738.39,449.12 738.37,449.40"/>
    </edge>
    <edge id=":188_0" function="internal">
        <lane id=":188_0_0" index="0" speed="13.90" length="2.64" shape="738.37,498.05 738.47,498.77 738.78,499.28 739.30,499.57 740.02,499.65"/>
    </edge>
    <edge id=":189_0" function="internal">
        <lane id=":189_0_0" index="0" speed="13.90" length="0.10" shape="1335.45,480.56 1335.50,480.56"/>
    </edge>
    <edge id=":19_0" function="internal">
        <lane id=":19_0_0" index="0" speed="13.90" length="0.28" shape="368.11,481.65 368.34,481.50"/>
    </edge>
    <edge id=":190_0" function="internal">
        <lane id=":190_0_0" index="0" speed="13.90" length="2.84" shape="1335.50,480.56 1333.84,482.86"/>
    </edge>
    <edge id=":191_0" function="internal">
        <lane id=":191_0_0" index="0" speed="13.90" length="0.28" shape="1322.40,471.02 1322.19,470.84"/>
    </edge>
    <edge id=":192_0" function="internal">
        <lane id=":192_0_0" index="0" speed="13.90" length="0.28" shape="1308.55,460.92 1308.31,460.78"/>
    </edge>
    <edge id=":193_0" function="internal">
        <lane id=":193_0_0" index="0" speed="13.90" length="0.28" shape="1293.15,453.39 1292.89,453.29"/>
    </edge>
    <edge id=":194_0" function="internal">
        <lane id=":194_0_0" index="0" speed="13.90" length="0.28" shape="1276.68,448.64 1276.41,448.59"/>
    </edge>
    <edge id=":195_0" function="internal">
        <lane id=":195_0_0" index="0" speed="13.90" length="0.28" shape="1259.64,446.83 1259.36,446.82"/>
    </edge>
    <edge id=":196_0" function="internal">
        <lane id=":196_0_0" index="0" speed="13.90" length="0.28" shape="1242.54,448.00 1242.26,448.04"/>
    </edge>
    <edge id=":197_0" function="internal">
        <lane id=":197_0_0" index="0" speed="13.90" length="0.28" shape="1225.90,452.12 1225.64,452.21"/>
    </edge>
    <edge id=":198_0" function="internal">
        <lane id=":198_0_0" index="0" speed="13.90" length="0.28" shape="1210.23,459.07 1209.99,459.20"/>
    </edge>
    <edge id=":199_0" function="internal">
        <lane id=":199_0_0" index="0" speed="13.90" length="3.76" shape="1200.41,465.67 1199.56,466.42 1199.31,467.13 1199.66,467.80 1200.59,468.43"/>
    </edge>
    <edge id=":2_0" function="internal">
        <lane id=":2_0_0" index="0" speed="13.90" length="0.10" shape="100.00,263.15 100.00,263.15"/>
    </edge>
    <edge id=":20_0" function="internal">
        <lane id=":20_0_0" index="0" speed="13.90" length="0.28" shape="374.76,476.48 374.97,476.29"/>
    </edge>
    <edge id=":200_0" function="internal">
        <lane id=":200_0_0" index="0" speed="13.90" length="0.19" shape="1357.74,546.34 1357.74,546.53"/>
    </edge>
    <edge id=":201_0" function="internal">
        <lane id=":201_0_0" index="0" speed="13.90" length="0.16" shape="1357.74,546.53 1357.74,546.38"/>
    </edge>
    <edge id=":202_0" function="internal">
        <lane id=":202_0_0" index="0" speed="13.90" length="0.28" shape="1372.99,539.59 1373.26,539.50"/>
    </edge>
    <edge id=":203_0" function="internal">
        <lane id=":203_0_0" index="0" speed="13.90" length="0.28" shape="1390.18,535.28 1390.46,535.23"/>
    </edge>
    <edge id=":204_0" function="internal">
        <lane id=":204_0_0" index="0" speed="13.90" length="0.28" shape="1407.85,534.02 1408.13,534.02"/>
    </edge>
    <edge id=":205_0" function="internal">
        <lane id=":205_0_0" index="0" speed="13.90" length="0.28" shape="1425.48,535.84 1425.75,535.90"/>
    </edge>
    <edge id=":206_0" function="internal">
        <lane id=":206_0_0" index="0" speed="13.90" length="0.28" shape="1442.51,540.70 1442.77,540.80"/>
    </edge>
    <edge id=":207_0" function="internal">
        <lane id=":207_0_0" index="0" speed="13.90" length="0.28" shape="1458.45,548.45 1458.69,548.59"/>
    </edge>
    <edge id=":208_0" function="internal">
        <lane id=":208_0_0" index="0" speed="13.90" length="0.28" shape="1472.80,558.84 1473.01,559.03"/>
    </edge>
    <edge id=":209_0" function="internal">
        <lane id=":209_0_0" index="0" speed="13.90" length="0.28" shape="1485.12,571.57 1485.30,571.79"/>
    </edge>
    <edge id=":21_0" function="internal">
        <lane id=":21_0_0" index="0" speed="13.90" length="0.28" shape="380.42,470.24 380.59,470.02"/>
    </edge>
    <edge id=":210_0" function="internal">
        <lane id=":210_0_0" index="0" speed="13.90" length="0.28" shape="1495.05,586.25 1495.19,586.49"/>
    </edge>
    <edge id=":211_0" function="internal">
        <lane id=":211_0_0" index="0" speed="13.90" length="0.28" shape="1502.28,602.42 1502.37,602.69"/>
    </edge>
    <edge id=":212_0" function="internal">
        <lane id=":212_0_0" index="0" speed="13.90" length="0.28" shape="1506.59,619.61 1506.63,619.88"/>
    </edge>
    <edge id=":213_0" function="internal">
        <lane id=":213_0_0" index="0" speed="13.90" length="0.28" shape="1507.85,637.28 1507.84,637.56"/>
    </edge>
    <edge id=":214_0" function="internal">
        <lane id=":214_0_0" index="0" speed="13.90" length="0.28" shape="1506.02,654.90 1505.97,655.18"/>
    </edge>
    <edge id=":215_0" function="internal">
        <lane id=":215_0_0" index="0" speed="13.90" length="0.28" shape="1501.16,671.94 1501.06,672.20"/>
    </edge>
    <edge id=":216_0" function="internal">
        <lane id=":216_0_0" index="0" speed="13.90" length="0.28" shape="1493.42,687.88 1493.27,688.12"/>
    </edge>
    <edge id=":217_0" function="internal">
        <lane id=":217_0_0" index="0" speed="13.90" length="0.28" shape="1483.02,702.23 1482.84,702.44"/>
    </edge>
    <edge id=":218_0" function="internal">
        <lane id=":218_0_0" index="0" speed="13.90" length="4.75" shape="1470.30,714.55 1468.92,715.04 1468.02,714.89 1467.61,714.08 1467.68,712.61"/>
    </edge>
    <edge id=":219_0" function="internal">
        <lane id=":219_0_0" index="0" speed="13.90" length="1.70" shape="1504.61,640.35 1506.07,639.48"/>
    </edge>
    <edge id=":22_0" function="internal">
        <lane id=":22_0_0" index="0" speed="13.90" length="0.28" shape="384.90,463.11 385.03,462.86"/>
    </edge>
    <edge id=":220_0" function="internal">
        <lane id=":220_0_0" index="0" speed="13.90" length="3.11" shape="1506.07,639.48 1507.13,642.40"/>
    </edge>
    <edge id=":221_0" function="internal">
        <lane id=":221_0_0" index="0" speed="13.90" length="0.28" shape="1492.78,652.08 1492.56,652.26"/>
    </edge>
    <edge id=":222_0" function="internal">
        <lane id=":222_0_0" index="0" speed="13.90" length="0.28" shape="1480.43,663.97 1480.25,664.18"/>
    </edge>
    <edge id=":223_0" function="internal">
        <lane id=":223_0_0" index="0" speed="13.90" length="0.28" shape="1470.33,677.83 1470.19,678.06"/>
    </edge>
    <edge id=":224_0" function="internal">
        <lane id=":224_0_0" index="0" speed="13.90" length="0.28" shape="1462.80,693.22 1462.70,693.48"/>
    </edge>
    <edge id=":225_0" function="internal">
        <lane id=":225_0_0" index="0" speed="13.90" length="0.28" shape="1458.05,709.69 1458.00,709.96"/>
    </edge>
    <edge id=":226_0" function="internal">
        <lane id=":226_0_0" index="0" speed="13.90" length="0.28" shape="1456.24,726.73 1456.23,727.01"/>
    </edge>
    <edge id=":227_0" function="internal">
        <lane id=":227_0_0" index="0" speed="13.90" length="0.28" shape="1457.41,743.83 1457.45,744.11"/>
    </edge>
    <edge id=":228_0" function="internal">
        <lane id=":228_0_0" index="0" speed="13.90" length="0.28" shape="1461.53,760.47 1461.62,760.73"/>
    </edge>
    <edge id=":229_0" function="internal">
        <lane id=":229_0_0" index="0" speed="13.90" length="0.28" shape="1468.48,776.14 1468.61,776.38"/>
    </edge>
    <edge id=":23_0" function="internal">
        <lane id=":23_0_0" index="0" speed="13.90" length="0.34" shape="388.06,455.37 388.15,455.04"/>
    </edge>
    <edge id=":230_0" function="internal">
        <lane id=":230_0_0" index="0" speed="13.90" length="0.28" shape="1478.04,790.36 1478.22,790.58"/>
    </edge>
    <edge id=":231_0" function="internal">
        <lane id=":231_0_0" index="0" speed="13.90" length="0.28" shape="1489.93,802.71 1490.14,802.89"/>
    </edge>
    <edge id=":232_0" function="internal">
        <lane id=":232_0_0" index="0" speed="13.90" length="0.28" shape="1503.79,812.80 1504.02,812.95"/>
    </edge>
    <edge id=":233_0" function="internal">
        <lane id=":233_0_0" index="0" speed="13.90" length="0.28" shape="1519.18,820.34 1519.44,820.44"/>
    </edge>
    <edge id=":234_0" function="internal">
        <lane id=":234_0_0" index="0" speed="13.90" length="0.28" shape="1535.65,825.09 1535.92,825.14"/>
    </edge>
    <edge id=":235_0" function="internal">
        <lane id=":235_0_0" index="0" speed="13.90" length="0.28" shape="1552.69,826.90 1552.97,826.91"/>
    </edge>
    <edge id=":236_0" function="internal">
        <lane id=":236_0_0" index="0" speed="13.90" length="0.28" shape="1569.79,825.73 1570.07,825.69"/>
    </edge>
    <edge id=":237_0" function="internal">
        <lane id=":237_0_0" index="0" speed="13.90" length="0.28" shape="1586.43,821.61 1586.69,821.52"/>
    </edge>
    <edge id=":238_0" function="internal">
        <lane id=":238_0_0" index="0" speed="13.90" length="0.93" shape="1601.46,814.95 1602.16,814.34"/>
    </edge>
    <edge id=":239_0" function="internal">
        <lane id=":239_0_0" index="0" speed="13.90" length="1.04" shape="1653.00,733.45 1653.80,732.80"/>
    </edge>
    <edge id=":24_0" function="internal">
        <lane id=":24_0_0" index="0" speed="13.90" length="2.10" shape="390.24,442.78 391.86,441.45"/>
    </edge>
    <edge id=":240_0" function="internal">
        <lane id=":240_0_0" index="0" speed="13.90" length="0.10" shape="1794.77,681.49 1794.77,681.49"/>
    </edge>
    <edge id=":241_0" function="internal">
        <lane id=":241_0_0" index="0" speed="13.90" length="0.56" shape="1982.72,613.08 1983.28,612.99"/>
    </edge>
    <edge id=":242_0" function="internal">
        <lane id=":242_0_0" index="0" speed="13.90" length="0.10" shape="1983.28,612.99 1983.28,612.93"/>
    </edge>
    <edge id=":243_0" function="internal">
        <lane id=":243_0_0" index="0" speed="13.90" length="0.28" shape="1999.19,608.67 1999.46,608.62"/>
    </edge>
    <edge id=":244_0" function="internal">
        <lane id=":244_0_0" index="0" speed="13.90" length="0.28" shape="2016.31,607.14 2016.59,607.14"/>
    </edge>
    <edge id=":245_0" function="internal">
        <lane id=":245_0_0" index="0" speed="13.90" length="0.28" shape="2033.44,608.62 2033.72,608.67"/>
    </edge>
    <edge id=":246_0" function="internal">
        <lane id=":246_0_0" index="0" speed="13.90" length="0.28" shape="2050.06,613.04 2050.32,613.14"/>
    </edge>
    <edge id=":247_0" function="internal">
        <lane id=":247_0_0" index="0" speed="13.90" length="0.28" shape="2065.65,620.29 2065.89,620.43"/>
    </edge>
    <edge id=":248_0" function="internal">
        <lane id=":248_0_0" index="0" speed="13.90" length="0.28" shape="2079.75,630.13 2079.97,630.31"/>
    </edge>
    <edge id=":249_0" function="internal">
        <lane id=":249_0_0" index="0" speed="13.90" length="0.28" shape="2091.93,642.27 2092.11,642.49"/>
    </edge>
    <edge id=":25_0" function="internal">
        <lane id=":25_0_0" index="0" speed="13.90" length="3.24" shape="391.86,441.45 391.15,444.60"/>
    </edge>
    <edge id=":250_0" function="internal">
        <lane id=":250_0_0" index="0" speed="13.90" length="0.28" shape="2101.81,656.34 2101.95,656.59"/>
    </edge>
    <edge id=":251_0" function="internal">
        <lane id=":251_0_0" index="0" speed="13.90" length="0.28" shape="2109.10,671.92 2109.19,672.18"/>
    </edge>
    <edge id=":252_0" function="internal">
        <lane id=":252_0_0" index="0" speed="13.90" length="0.28" shape="2113.57,688.52 2113.62,688.79"/>
    </edge>
    <edge id=":253_0" function="internal">
        <lane id=":253_0_0" index="0" speed="13.90" length="0.28" shape="2115.10,705.65 2115.10,705.93"/>
    </edge>
    <edge id=":254_0" function="internal">
        <lane id=":254_0_0" index="0" speed="13.90" length="0.28" shape="2113.62,722.78 2113.57,723.05"/>
    </edge>
    <edge id=":255_0" function="internal">
        <lane id=":255_0_0" index="0" speed="13.90" length="0.28" shape="2109.19,739.39 2109.10,739.66"/>
    </edge>
    <edge id=":256_0" function="internal">
        <lane id=":256_0_0" index="0" speed="13.90" length="0.28" shape="2101.95,754.99 2101.81,755.23"/>
    </edge>
    <edge id=":257_0" function="internal">
        <lane id=":257_0_0" index="0" speed="13.90" length="0.28" shape="2092.11,769.09 2091.93,769.30"/>
    </edge>
    <edge id=":258_0" function="internal">
        <lane id=":258_0_0" index="0" speed="13.90" length="0.28" shape="2079.97,781.26 2079.75,781.44"/>
    </edge>
    <edge id=":259_0" function="internal">
        <lane id=":259_0_0" index="0" speed="13.90" length="8.33" shape="2065.70,791.28 2063.19,792.81 2061.97,792.96 2062.05,791.73 2063.42,789.13"/>
    </edge>
    <edge id=":26_0" function="internal">
        <lane id=":26_0_0" index="0" speed="13.90" length="0.28" shape="383.04,442.12 382.78,442.02"/>
    </edge>
    <edge id=":260_0" function="internal">
        <lane id=":260_0_0" index="0" speed="13.90" length="3.30" shape="2109.49,714.17 2109.87,713.29 2109.82,712.60 2109.35,712.09 2108.45,711.76"/>
    </edge>