<?xml version="1.0" encoding="UTF-8"?>

<!-- generated on Mon Mar 14 16:07:52 2016 by SUMO netconvert Version dev-SVN-r19787
<?xml version="1.0" encoding="UTF-8"?>

<configuration xmlns:xsi="http://www.w3.org/2001/XMLSchema-instance" xsi:noNamespaceSchemaLocation="http://sumo.dlr.de/xsd/netconvertConfiguration.xsd">

    <input>
        <node-files value="Track01.nod.xml"/>
        <edge-files value="Track01.edg.xml"/>
    </input>

    <output>
        <output-file value="Track01.net.xml"/>
    </output>

</configuration>
-->

<net version="0.25" xmlns:xsi="http://www.w3.org/2001/XMLSchema-instance" xsi:noNamespaceSchemaLocation="http://sumo.dlr.de/xsd/net_file.xsd">

    <location netOffset="494.84,0.71" convBoundary="0.00,0.00,993.43,927.25" origBoundary="-494.84,-0.71,498.58,926.54" projParameter="!"/>

    <edge id=":1_0" function="internal">
        <lane id=":1_0_0" index="0" speed="13.90" length="0.10" width="0.1" shape="494.85,-2.34 494.84,-2.34"/>
    </edge>
    <edge id=":10_0" function="internal">
        <lane id=":10_0_0" index="0" speed="13.90" length="0.52" width="0.1" shape="776.91,102.32 777.32,102.63"/>
    </edge>
    <edge id=":100_0" function="internal">
        <lane id=":100_0_0" index="0" speed="13.90" length="0.52" width="0.1" shape="799.90,313.79 799.95,314.31"/>
    </edge>
    <edge id=":101_0" function="internal">
        <lane id=":101_0_0" index="0" speed="13.90" length="0.52" width="0.1" shape="801.41,321.83 801.56,322.33"/>
    </edge>
    <edge id=":102_0" function="internal">
        <lane id=":102_0_0" index="0" speed="13.90" length="0.52" width="0.1" shape="804.30,329.48 804.53,329.95"/>
    </edge>
    <edge id=":103_0" function="internal">
        <lane id=":103_0_0" index="0" speed="13.90" length="0.52" width="0.1" shape="808.47,336.51 808.78,336.94"/>
    </edge>
    <edge id=":104_0" function="internal">
        <lane id=":104_0_0" index="0" speed="13.90" length="0.52" width="0.1" shape="813.81,342.71 814.18,343.08"/>
    </edge>
    <edge id=":105_0" function="internal">
        <lane id=":105_0_0" index="0" speed="13.90" length="0.52" width="0.1" shape="820.13,347.90 820.57,348.19"/>
    </edge>
    <edge id=":106_0" function="internal">
        <lane id=":106_0_0" index="0" speed="13.90" length="0.52" width="0.1" shape="827.26,351.90 827.74,352.11"/>
    </edge>
    <edge id=":107_0" function="internal">
        <lane id=":107_0_0" index="0" speed="13.90" length="0.26" width="0.1" shape="835.23,354.69 835.48,354.77"/>
    </edge>
    <edge id=":108_0" function="internal">
        <lane id=":108_0_0" index="0" speed="13.90" length="0.26" width="0.1" shape="883.74,366.80 883.99,366.87"/>
    </edge>
    <edge id=":109_0" function="internal">
        <lane id=":109_0_0" index="0" speed="13.90" length="0.52" width="0.1" shape="892.24,369.71 892.72,369.93"/>
    </edge>
    <edge id=":11_0" function="internal">
        <lane id=":11_0_0" index="0" speed="13.90" length="0.52" width="0.1" shape="783.82,106.69 784.28,106.93"/>
    </edge>
    <edge id=":110_0" function="internal">
        <lane id=":110_0_0" index="0" speed="13.90" length="0.52" width="0.1" shape="900.35,374.16 900.78,374.45"/>
    </edge>
    <edge id=":111_0" function="internal">
        <lane id=":111_0_0" index="0" speed="13.90" length="0.52" width="0.1" shape="907.56,379.94 907.94,380.30"/>
    </edge>
    <edge id=":112_0" function="internal">
        <lane id=":112_0_0" index="0" speed="13.90" length="0.52" width="0.1" shape="913.66,386.89 913.97,387.31"/>
    </edge>
    <edge id=":113_0" function="internal">
        <lane id=":113_0_0" index="0" speed="13.90" length="0.52" width="0.1" shape="918.46,394.79 918.69,395.26"/>
    </edge>
    <edge id=":114_0" function="internal">
        <lane id=":114_0_0" index="0" speed="13.90" length="0.52" width="0.1" shape="921.82,403.40 921.96,403.91"/>
    </edge>
    <edge id=":115_0" function="internal">
        <lane id=":115_0_0" index="0" speed="13.90" length="0.52" width="0.1" shape="923.63,412.47 923.68,412.99"/>
    </edge>
    <edge id=":116_0" function="internal">
        <lane id=":116_0_0" index="0" speed="13.90" length="0.52" width="0.1" shape="923.83,421.71 923.80,422.23"/>
    </edge>
    <edge id=":117_0" function="internal">
        <lane id=":117_0_0" index="0" speed="13.90" length="0.52" width="0.1" shape="922.43,430.85 922.31,431.36"/>
    </edge>
    <edge id=":118_0" function="internal">
        <lane id=":118_0_0" index="0" speed="13.90" length="0.52" width="0.1" shape="919.47,439.61 919.25,440.08"/>
    </edge>
    <edge id=":119_0" function="internal">
        <lane id=":119_0_0" index="0" speed="13.90" length="0.52" width="0.1" shape="915.02,447.72 914.73,448.15"/>
    </edge>
    <edge id=":12_0" function="internal">
        <lane id=":12_0_0" index="0" speed="13.90" length="0.52" width="0.1" shape="791.38,109.80 791.88,109.95"/>
    </edge>
    <edge id=":120_0" function="internal">
        <lane id=":120_0_0" index="0" speed="13.90" length="0.52" width="0.1" shape="909.24,454.93 908.88,455.31"/>
    </edge>
    <edge id=":121_0" function="internal">
        <lane id=":121_0_0" index="0" speed="13.90" length="0.52" width="0.1" shape="902.29,461.03 901.87,461.34"/>
    </edge>
    <edge id=":122_0" function="internal">
        <lane id=":122_0_0" index="0" speed="13.90" length="0.52" width="0.1" shape="894.39,465.83 893.92,466.06"/>
    </edge>
    <edge id=":123_0" function="internal">
        <lane id=":123_0_0" index="0" speed="13.90" length="0.52" width="0.1" shape="885.78,469.19 885.27,469.33"/>
    </edge>
    <edge id=":124_0" function="internal">
        <lane id=":124_0_0" index="0" speed="13.90" length="0.52" width="0.1" shape="876.71,470.99 876.19,471.05"/>
    </edge>
    <edge id=":125_0" function="internal">
        <lane id=":125_0_0" index="0" speed="13.90" length="0.52" width="0.1" shape="867.47,471.20 866.95,471.16"/>
    </edge>
    <edge id=":126_0" function="internal">
        <lane id=":126_0_0" index="0" speed="13.90" length="0.52" width="0.1" shape="858.33,469.80 857.82,469.67"/>
    </edge>
    <edge id=":127_0" function="internal">
        <lane id=":127_0_0" index="0" speed="13.90" length="0.52" width="0.1" shape="849.57,466.83 849.09,466.62"/>
    </edge>
    <edge id=":128_0" function="internal">
        <lane id=":128_0_0" index="0" speed="13.90" length="0.26" width="0.1" shape="841.47,462.39 841.24,462.25"/>
    </edge>
    <edge id=":129_0" function="internal">
        <lane id=":129_0_0" index="0" speed="13.90" length="0.26" width="0.1" shape="733.69,389.71 733.46,389.57"/>
    </edge>
    <edge id=":13_0" function="internal">
        <lane id=":13_0_0" index="0" speed="13.90" length="0.52" width="0.1" shape="799.37,111.54 799.89,111.60"/>
    </edge>
    <edge id=":130_0" function="internal">
        <lane id=":130_0_0" index="0" speed="13.90" length="0.52" width="0.1" shape="730.34,387.84 729.87,387.63"/>
    </edge>
    <edge id=":131_0" function="internal">
        <lane id=":131_0_0" index="0" speed="13.90" length="0.52" width="0.1" shape="726.75,386.55 726.24,386.43"/>
    </edge>
    <edge id=":132_0" function="internal">
        <lane id=":132_0_0" index="0" speed="13.90" length="0.52" width="0.1" shape="722.98,385.91 722.46,385.88"/>
    </edge>
    <edge id=":133_0" function="internal">
        <lane id=":133_0_0" index="0" speed="13.90" length="0.52" width="0.1" shape="719.16,385.93 718.64,385.99"/>
    </edge>
    <edge id=":134_0" function="internal">
        <lane id=":134_0_0" index="0" speed="13.90" length="0.52" width="0.1" shape="715.40,386.62 714.90,386.76"/>
    </edge>
    <edge id=":135_0" function="internal">
        <lane id=":135_0_0" index="0" speed="13.90" length="0.52" width="0.1" shape="711.82,387.94 711.35,388.17"/>
    </edge>
    <edge id=":136_0" function="internal">
        <lane id=":136_0_0" index="0" speed="13.90" length="0.52" width="0.1" shape="708.52,389.87 708.10,390.18"/>
    </edge>
    <edge id=":137_0" function="internal">
        <lane id=":137_0_0" index="0" speed="13.90" length="0.52" width="0.1" shape="705.61,392.34 705.25,392.72"/>
    </edge>
    <edge id=":138_0" function="internal">
        <lane id=":138_0_0" index="0" speed="13.90" length="0.52" width="0.1" shape="703.17,395.28 702.88,395.72"/>
    </edge>
    <edge id=":139_0" function="internal">
        <lane id=":139_0_0" index="0" speed="13.90" length="0.52" width="0.1" shape="701.28,398.60 701.07,399.08"/>
    </edge>
    <edge id=":14_0" function="internal">
        <lane id=":14_0_0" index="0" speed="13.90" length="0.52" width="0.1" shape="807.54,111.87 808.07,111.84"/>
    </edge>
    <edge id=":140_0" function="internal">
        <lane id=":140_0_0" index="0" speed="13.90" length="0.52" width="0.1" shape="699.99,402.20 699.86,402.71"/>
    </edge>
    <edge id=":141_0" function="internal">
        <lane id=":141_0_0" index="0" speed="13.90" length="0.26" width="0.1" shape="699.31,406.23 699.28,406.49"/>
    </edge>
    <edge id=":142_0" function="internal">
        <lane id=":142_0_0" index="0" speed="13.90" length="0.26" width="0.1" shape="672.58,788.29 672.55,788.55"/>
    </edge>
    <edge id=":143_0" function="internal">
        <lane id=":143_0_0" index="0" speed="13.90" length="0.52" width="0.1" shape="668.46,814.39 668.33,814.89"/>
    </edge>
    <edge id=":144_0" function="internal">
        <lane id=":144_0_0" index="0" speed="13.90" length="0.52" width="0.1" shape="659.82,839.62 659.60,840.10"/>
    </edge>
    <edge id=":145_0" function="internal">
        <lane id=":145_0_0" index="0" speed="13.90" length="0.52" width="0.1" shape="646.92,862.98 646.63,863.41"/>
    </edge>
    <edge id=":146_0" function="internal">
        <lane id=":146_0_0" index="0" speed="13.90" length="0.52" width="0.1" shape="630.17,883.74 629.81,884.11"/>
    </edge>
    <edge id=":147_0" function="internal">
        <lane id=":147_0_0" index="0" speed="13.90" length="0.52" width="0.1" shape="610.07,901.27 609.64,901.58"/>
    </edge>
    <edge id=":148_0" function="internal">
        <lane id=":148_0_0" index="0" speed="13.90" length="0.52" width="0.1" shape="587.22,915.05 586.75,915.28"/>
    </edge>
    <edge id=":149_0" function="internal">
        <lane id=":149_0_0" index="0" speed="13.90" length="0.52" width="0.1" shape="562.34,924.65 561.83,924.80"/>
    </edge>
    <edge id=":15_0" function="internal">
        <lane id=":15_0_0" index="0" speed="13.90" length="0.52" width="0.1" shape="815.65,110.78 816.16,110.66"/>
    </edge>
    <edge id=":150_0" function="internal">
        <lane id=":150_0_0" index="0" speed="13.90" length="0.52" width="0.1" shape="536.16,929.79 535.64,929.84"/>
    </edge>
    <edge id=":151_0" function="internal">
        <lane id=":151_0_0" index="0" speed="13.90" length="0.52" width="0.1" shape="509.49,930.30 508.97,930.26"/>
    </edge>
    <edge id=":152_0" function="internal">
        <lane id=":152_0_0" index="0" speed="13.90" length="0.52" width="0.1" shape="483.13,926.17 482.62,926.05"/>
    </edge>
    <edge id=":153_0" function="internal">
        <lane id=":153_0_0" index="0" speed="13.90" length="0.52" width="0.1" shape="457.89,917.53 457.42,917.32"/>
    </edge>
    <edge id=":154_0" function="internal">
        <lane id=":154_0_0" index="0" speed="13.90" length="0.52" width="0.1" shape="434.54,904.64 434.11,904.34"/>
    </edge>
    <edge id=":155_0" function="internal">
        <lane id=":155_0_0" index="0" speed="13.90" length="0.52" width="0.1" shape="413.78,887.88 413.40,887.52"/>
    </edge>
    <edge id=":156_0" function="internal">
        <lane id=":156_0_0" index="0" speed="13.90" length="0.29" width="0.1" shape="396.25,867.78 396.07,867.56"/>
    </edge>
    <edge id=":157_0" function="internal">
        <lane id=":157_0_0" index="0" speed="13.90" length="0.29" width="0.1" shape="394.54,865.42 394.39,865.18"/>
    </edge>
    <edge id=":158_0" function="internal">
        <lane id=":158_0_0" index="0" speed="13.90" length="0.52" width="0.1" shape="390.03,857.63 389.81,857.15"/>
    </edge>
    <edge id=":159_0" function="internal">
        <lane id=":159_0_0" index="0" speed="13.90" length="0.52" width="0.1" shape="386.82,848.95 386.69,848.45"/>
    </edge>
    <edge id=":16_0" function="internal">
        <lane id=":16_0_0" index="0" speed="13.90" length="0.52" width="0.1" shape="823.44,108.29 823.92,108.09"/>
    </edge>
    <edge id=":160_0" function="internal">
        <lane id=":160_0_0" index="0" speed="13.90" length="0.52" width="0.1" shape="385.17,839.86 385.13,839.34"/>
    </edge>
    <edge id=":161_0" function="internal">
        <lane id=":161_0_0" index="0" speed="13.90" length="0.52" width="0.1" shape="385.13,830.61 385.17,830.09"/>
    </edge>
    <edge id=":162_0" function="internal">
        <lane id=":162_0_0" index="0" speed="13.90" length="0.52" width="0.1" shape="386.69,821.50 386.82,820.99"/>
    </edge>
    <edge id=":163_0" function="internal">
        <lane id=":163_0_0" index="0" speed="13.90" length="0.52" width="0.1" shape="389.81,812.80 390.03,812.32"/>
    </edge>
    <edge id=":164_0" function="internal">
        <lane id=":164_0_0" index="0" speed="13.90" length="0.52" width="0.1" shape="394.39,804.77 394.69,804.34"/>
    </edge>
    <edge id=":165_0" function="internal">
        <lane id=":165_0_0" index="0" speed="13.90" length="0.52" width="0.1" shape="400.30,797.65 400.67,797.28"/>
    </edge>
    <edge id=":166_0" function="internal">
        <lane id=":166_0_0" index="0" speed="13.90" length="0.52" width="0.1" shape="407.35,791.68 407.78,791.38"/>
    </edge>
    <edge id=":167_0" function="internal">
        <lane id=":167_0_0" index="0" speed="13.90" length="0.52" width="0.1" shape="415.33,787.01 415.81,786.79"/>
    </edge>
    <edge id=":168_0" function="internal">
        <lane id=":168_0_0" index="0" speed="13.90" length="0.52" width="0.1" shape="424.01,783.81 424.51,783.67"/>
    </edge>
    <edge id=":169_0" function="internal">
        <lane id=":169_0_0" index="0" speed="13.90" length="0.52" width="0.1" shape="433.10,782.16 433.62,782.11"/>
    </edge>
    <edge id=":17_0" function="internal">
        <lane id=":17_0_0" index="0" speed="13.90" length="0.52" width="0.1" shape="830.68,104.50 831.12,104.21"/>
    </edge>
    <edge id=":170_0" function="internal">
        <lane id=":170_0_0" index="0" speed="13.90" length="0.10" width="0.1" shape="442.34,782.11 442.34,782.11"/>
    </edge>
    <edge id=":171_0" function="internal">
        <lane id=":171_0_0" index="0" speed="13.90" length="0.52" width="0.1" shape="450.53,782.11 451.05,782.07"/>
    </edge>
    <edge id=":172_0" function="internal">
        <lane id=":172_0_0" index="0" speed="13.90" length="0.52" width="0.1" shape="458.59,780.74 459.10,780.60"/>
    </edge>
    <edge id=":173_0" function="internal">
        <lane id=":173_0_0" index="0" speed="13.90" length="0.52" width="0.1" shape="466.29,777.98 466.77,777.76"/>
    </edge>
    <edge id=":174_0" function="internal">
        <lane id=":174_0_0" index="0" speed="13.90" length="0.52" width="0.1" shape="473.40,773.93 473.83,773.63"/>
    </edge>
    <edge id=":175_0" function="internal">
        <lane id=":175_0_0" index="0" speed="13.90" length="0.52" width="0.1" shape="479.69,768.71 480.06,768.34"/>
    </edge>
    <edge id=":176_0" function="internal">
        <lane id=":176_0_0" index="0" speed="13.90" length="0.52" width="0.1" shape="484.98,762.48 485.28,762.05"/>
    </edge>
    <edge id=":177_0" function="internal">
        <lane id=":177_0_0" index="0" speed="13.90" length="0.42" width="0.1" shape="489.16,755.33 489.35,754.95"/>
    </edge>
    <edge id=":178_0" function="internal">
        <lane id=":178_0_0" index="0" speed="13.90" length="0.42" width="0.1" shape="490.99,750.88 491.12,750.48"/>
    </edge>
    <edge id=":179_0" function="internal">
        <lane id=":179_0_0" index="0" speed="13.90" length="0.52" width="0.1" shape="495.11,734.49 495.19,733.98"/>
    </edge>
    <edge id=":18_0" function="internal">
        <lane id=":18_0_0" index="0" speed="13.90" length="0.52" width="0.1" shape="837.15,99.50 837.54,99.14"/>
    </edge>
    <edge id=":180_0" function="internal">
        <lane id=":180_0_0" index="0" speed="13.90" length="0.52" width="0.1" shape="496.33,717.65 496.32,717.12"/>
    </edge>
    <edge id=":181_0" function="internal">
        <lane id=":181_0_0" index="0" speed="13.90" length="0.52" width="0.1" shape="494.61,700.84 494.51,700.33"/>
    </edge>
    <edge id=":182_0" function="internal">
        <lane id=":182_0_0" index="0" speed="13.90" length="0.52" width="0.1" shape="490.00,684.59 489.81,684.10"/>
    </edge>
    <edge id=":183_0" function="internal">
        <lane id=":183_0_0" index="0" speed="13.90" length="0.52" width="0.1" shape="482.63,669.38 482.36,668.94"/>
    </edge>
    <edge id=":184_0" function="internal">
        <lane id=":184_0_0" index="0" speed="13.90" length="0.52" width="0.1" shape="472.74,655.69 472.40,655.30"/>
    </edge>
    <edge id=":185_0" function="internal">
        <lane id=":185_0_0" index="0" speed="13.90" length="0.52" width="0.1" shape="460.62,643.92 460.21,643.59"/>
    </edge>
    <edge id=":186_0" function="internal">
        <lane id=":186_0_0" index="0" speed="13.90" length="0.52" width="0.1" shape="446.64,634.44 446.18,634.18"/>
    </edge>
    <edge id=":187_0" function="internal">
        <lane id=":187_0_0" index="0" speed="13.90" length="0.52" width="0.1" shape="431.23,627.53 430.73,627.35"/>
    </edge>
    <edge id=":188_0" function="internal">
        <lane id=":188_0_0" index="0" speed="13.90" length="0.10" width="0.1" shape="414.33,623.27 414.33,623.27"/>
    </edge>
    <edge id=":189_0" function="internal">
        <lane id=":189_0_0" index="0" speed="13.90" length="0.52" width="0.1" shape="397.41,619.05 396.92,618.88"/>
    </edge>
    <edge id=":19_0" function="internal">
        <lane id=":19_0_0" index="0" speed="13.90" length="0.52" width="0.1" shape="842.66,93.45 842.97,93.03"/>
    </edge>
    <edge id=":190_0" function="internal">
        <lane id=":190_0_0" index="0" speed="13.90" length="0.52" width="0.1" shape="380.99,611.78 380.53,611.53"/>
    </edge>
    <edge id=":191_0" function="internal">
        <lane id=":191_0_0" index="0" speed="13.90" length="0.52" width="0.1" shape="366.07,601.78 365.67,601.45"/>
    </edge>
    <edge id=":192_0" function="internal">
        <lane id=":192_0_0" index="0" speed="13.90" length="0.52" width="0.1" shape="353.12,589.33 352.78,588.94"/>
    </edge>
    <edge id=":193_0" function="internal">
        <lane id=":193_0_0" index="0" speed="13.90" length="0.52" width="0.1" shape="342.53,574.83 342.26,574.38"/>
    </edge>
    <edge id=":194_0" function="internal">
        <lane id=":194_0_0" index="0" speed="13.90" length="0.52" width="0.1" shape="334.61,558.71 334.42,558.22"/>
    </edge>
    <edge id=":195_0" function="internal">
        <lane id=":195_0_0" index="0" speed="13.90" length="0.52" width="0.1" shape="329.62,541.46 329.52,540.94"/>
    </edge>
    <edge id=":196_0" function="internal">
        <lane id=":196_0_0" index="0" speed="13.90" length="0.52" width="0.1" shape="327.69,523.60 327.69,523.07"/>
    </edge>
    <edge id=":197_0" function="internal">
        <lane id=":197_0_0" index="0" speed="13.90" length="0.52" width="0.1" shape="328.90,505.68 328.98,505.16"/>
    </edge>
    <edge id=":198_0" function="internal">
        <lane id=":198_0_0" index="0" speed="13.90" length="0.52" width="0.1" shape="333.20,488.24 333.37,487.74"/>
    </edge>
    <edge id=":199_0" function="internal">
        <lane id=":199_0_0" index="0" speed="13.90" length="0.52" width="0.1" shape="340.47,471.81 340.72,471.35"/>
    </edge>
    <edge id=":2_0" function="internal">
        <lane id=":2_0_0" index="0" speed="13.90" length="0.26" width="0.1" shape="594.85,-2.34 595.11,-2.33"/>
    </edge>
    <edge id=":20_0" function="internal">
        <lane id=":20_0_0" index="0" speed="13.90" length="0.52" width="0.1" shape="847.03,86.54 847.27,86.07"/>
    </edge>
    <edge id=":200_0" function="internal">
        <lane id=":200_0_0" index="0" speed="13.90" length="0.52" width="0.1" shape="350.47,456.90 350.80,456.49"/>
    </edge>
    <edge id=":201_0" function="internal">
        <lane id=":201_0_0" index="0" speed="13.90" length="0.52" width="0.1" shape="362.92,443.94 363.31,443.60"/>
    </edge>
    <edge id=":202_0" function="internal">
        <lane id=":202_0_0" index="0" speed="13.90" length="0.52" width="0.1" shape="377.42,433.35 377.87,433.08"/>
    </edge>
    <edge id=":203_0" function="internal">
        <lane id=":203_0_0" index="0" speed="13.90" length="0.52" width="0.1" shape="393.54,425.44 394.03,425.25"/>
    </edge>
    <edge id=":204_0" function="internal">
        <lane id=":204_0_0" index="0" speed="13.90" length="0.52" width="0.1" shape="410.80,420.44 411.31,420.34"/>
    </edge>
    <edge id=":205_0" function="internal">
        <lane id=":205_0_0" index="0" speed="13.90" length="0.52" width="0.1" shape="428.65,418.52 429.18,418.51"/>
    </edge>
    <edge id=":206_0" function="internal">
        <lane id=":206_0_0" index="0" speed="13.90" length="0.10" width="0.1" shape="446.57,419.73 446.57,419.73"/>
    </edge>
    <edge id=":207_0" function="internal">
        <lane id=":207_0_0" index="0" speed="13.90" length="0.52" width="0.1" shape="463.43,420.91 463.95,420.90"/>
    </edge>
    <edge id=":208_0" function="internal">
        <lane id=":208_0_0" index="0" speed="13.90" length="0.52" width="0.1" shape="480.24,419.18 480.75,419.08"/>
    </edge>
    <edge id=":209_0" function="internal">
        <lane id=":209_0_0" index="0" speed="13.90" length="0.52" width="0.1" shape="496.49,414.57 496.98,414.38"/>
    </edge>
    <edge id=":21_0" function="internal">
        <lane id=":21_0_0" index="0" speed="13.90" length="0.39" width="0.1" shape="850.19,78.85 850.31,78.48"/>
    </edge>
    <edge id=":210_0" function="internal">
        <lane id=":210_0_0" index="0" speed="13.90" length="0.52" width="0.1" shape="511.69,407.21 512.14,406.94"/>
    </edge>
    <edge id=":211_0" function="internal">
        <lane id=":211_0_0" index="0" speed="13.90" length="0.52" width="0.1" shape="525.38,397.31 525.78,396.97"/>
    </edge>
    <edge id=":212_0" function="internal">
        <lane id=":212_0_0" index="0" speed="13.90" length="0.52" width="0.1" shape="537.15,385.19 537.48,384.79"/>
    </edge>
    <edge id=":213_0" function="internal">
        <lane id=":213_0_0" index="0" speed="13.90" length="0.52" width="0.1" shape="546.64,371.21 546.89,370.76"/>
    </edge>
    <edge id=":214_0" function="internal">
        <lane id=":214_0_0" index="0" speed="13.90" length="0.52" width="0.1" shape="553.55,355.80 553.72,355.31"/>
    </edge>
    <edge id=":215_0" function="internal">
        <lane id=":215_0_0" index="0" speed="13.90" length="0.52" width="0.1" shape="557.68,339.42 557.76,338.90"/>
    </edge>
    <edge id=":216_0" function="internal">
        <lane id=":216_0_0" index="0" speed="13.90" length="0.52" width="0.1" shape="558.91,322.57 558.90,322.05"/>
    </edge>
    <edge id=":217_0" function="internal">
        <lane id=":217_0_0" index="0" speed="13.90" length="0.52" width="0.1" shape="557.18,305.76 557.08,305.25"/>
    </edge>
    <edge id=":218_0" function="internal">
        <lane id=":218_0_0" index="0" speed="13.90" length="0.52" width="0.1" shape="552.57,289.51 552.38,289.02"/>
    </edge>
    <edge id=":219_0" function="internal">
        <lane id=":219_0_0" index="0" speed="13.90" length="0.52" width="0.1" shape="545.21,274.31 544.94,273.86"/>
    </edge>
    <edge id=":22_0" function="internal">
        <lane id=":22_0_0" index="0" speed="13.90" length="0.11" width="0.1" shape="851.31,74.62 851.34,74.51"/>
    </edge>
    <edge id=":220_0" function="internal">
        <lane id=":220_0_0" index="0" speed="13.90" length="0.52" width="0.1" shape="535.31,260.62 534.97,260.22"/>
    </edge>
    <edge id=":221_0" function="internal">
        <lane id=":221_0_0" index="0" speed="13.90" length="0.52" width="0.1" shape="523.19,248.85 522.79,248.52"/>
    </edge>
    <edge id=":222_0" function="internal">
        <lane id=":222_0_0" index="0" speed="13.90" length="0.52" width="0.1" shape="509.21,239.36 508.76,239.11"/>
    </edge>
    <edge id=":223_0" function="internal">
        <lane id=":223_0_0" index="0" speed="13.90" length="0.52" width="0.1" shape="493.80,232.45 493.31,232.28"/>
    </edge>
    <edge id=":224_0" function="internal">
        <lane id=":224_0_0" index="0" speed="13.90" length="0.50" width="0.1" shape="477.39,228.31 476.90,228.23"/>
    </edge>
    <edge id=":225_0" function="internal">
        <lane id=":225_0_0" index="0" speed="13.90" length="0.24" width="0.1" shape="462.00,227.06 461.76,227.05"/>
    </edge>
    <edge id=":226_0" function="internal">
        <lane id=":226_0_0" index="0" speed="13.90" length="0.10" width="0.1" shape="312.00,227.05 312.00,227.05"/>
    </edge>
    <edge id=":227_0" function="internal">
        <lane id=":227_0_0" index="0" speed="13.90" length="0.26" width="0.1" shape="112.00,227.05 111.74,227.04"/>
    </edge>
    <edge id=":228_0" function="internal">
        <lane id=":228_0_0" index="0" speed="13.90" length="0.52" width="0.1" shape="92.28,225.34 91.77,225.25"/>
    </edge>
    <edge id=":229_0" function="internal">
        <lane id=":229_0_0" index="0" speed="13.90" length="0.52" width="0.1" shape="72.90,220.19 72.41,220.01"/>
    </edge>
    <edge id=":23_0" function="internal">
        <lane id=":23_0_0" index="0" speed="13.90" length="0.52" width="0.1" shape="853.89,66.17 854.09,65.69"/>
    </edge>
    <edge id=":230_0" function="internal">
        <lane id=":230_0_0" index="0" speed="13.90" length="0.52" width="0.1" shape="54.71,211.76 54.25,211.50"/>
    </edge>
    <edge id=":231_0" function="internal">
        <lane id=":231_0_0" index="0" speed="13.90" length="0.52" width="0.1" shape="38.25,200.29 37.85,199.96"/>
    </edge>
    <edge id=":232_0" function="internal">
        <lane id=":232_0_0" index="0" speed="13.90" length="0.52" width="0.1" shape="24.04,186.15 23.71,185.75"/>
    </edge>
    <edge id=":233_0" function="internal">
        <lane id=":233_0_0" index="0" speed="13.90" length="0.52" width="0.1" shape="12.50,169.75 12.24,169.29"/>
    </edge>
    <edge id=":234_0" function="internal">
        <lane id=":234_0_0" index="0" speed="13.90" length="0.52" width="0.1" shape="3.99,151.59 3.81,151.10"/>
    </edge>
    <edge id=":235_0" function="internal">
        <lane id=":235_0_0" index="0" speed="13.90" length="0.52" width="0.1" shape="-1.25,132.23 -1.34,131.72"/>
    </edge>
    <edge id=":236_0" function="internal">
        <lane id=":236_0_0" index="0" speed="13.90" length="0.52" width="0.1" shape="-3.04,112.26 -3.04,111.74"/>
    </edge>
    <edge id=":237_0" function="internal">
        <lane id=":237_0_0" index="0" speed="13.90" length="0.52" width="0.1" shape="-1.34,92.28 -1.25,91.77"/>
    </edge>
    <edge id=":238_0" function="internal">
        <lane id=":238_0_0" index="0" speed="13.90" length="0.52" width="0.1" shape="3.81,72.90 3.99,72.41"/>
    </edge>
    <edge id=":239_0" function="internal">
        <lane id=":239_0_0" index="0" speed="13.90" length="0.52" width="0.1" shape="12.24,54.71 12.50,54.25"/>
    </edge>
    <edge id=":24_0" function="internal">
        <lane id=":24_0_0" index="0" speed="13.90" length="0.52" width="0.1" shape="858.05,57.91 858.32,57.47"/>
    </edge>
    <edge id=":240_0" function="internal">
        <lane id=":240_0_0" index="0" speed="13.90" length="0.52" width="0.1" shape="23.71,38.25 24.04,37.85"/>
    </edge>
    <edge id=":241_0" function="internal">
        <lane id=":241_0_0" index="0" speed="13.90" length="0.52" width="0.1" shape="37.85,24.04 38.25,23.71"/>
    </edge>
    <edge id=":242_0" function="internal">
        <lane id=":242_0_0" index="0" speed="13.90" length="0.52" width="0.1" shape="54.25,12.50 54.71,12.24"/>
    </edge>
    <edge id=":243_0" function="internal">
        <lane id=":243_0_0" index="0" speed="13.90" length="0.52" width="0.1" shape="72.41,3.99 72.90,3.81"/>
    </edge>
    <edge id=":244_0" function="internal">
        <lane id=":244_0_0" index="0" speed="13.90" length="0.52" width="0.1" shape="91.77,-1.25 92.28,-1.34"/>
    </edge>
    <edge id=":245_0" function="internal">
        <lane id=":245_0_0" index="0" speed="13.90" length="0.27" width="0.1" shape="111.74,-3.04 112.00,-3.05"/>
    </edge>
    <edge id=":25_0" function="internal">
        <lane id=":25_0_0" index="0" speed="13.90" length="0.52" width="0.1" shape="863.57,50.50 863.92,50.11"/>
    </edge>
    <edge id=":26_0" function="internal">
        <lane id=":26_0_0" index="0" speed="13.90" length="0.52" width="0.1" shape="870.30,44.16 870.72,43.84"/>
    </edge>
    <edge id=":27_0" function="internal">
        <lane id=":27_0_0" index="0" speed="13.90" length="0.52" width="0.1" shape="878.03,39.09 878.49,38.84"/>
    </edge>
    <edge id=":28_0" function="internal">
        <lane id=":28_0_0" index="0" speed="13.90" length="0.52" width="0.1" shape="886.53,35.44 887.02,35.27"/>
    </edge>
    <edge id=":29_0" function="internal">
        <lane id=":29_0_0" index="0" speed="13.90" length="0.52" width="0.1" shape="895.52,33.31 896.04,33.24"/>
    </edge>
    <edge id=":3_0" function="internal">
        <lane id=":3_0_0" index="0" speed="13.90" length="0.52" width="0.1" shape="630.02,0.73 630.53,0.82"/>
    </edge>
    <edge id=":30_0" function="internal">
        <lane id=":30_0_0" index="0" speed="13.90" length="0.52" width="0.1" shape="904.75,32.78 905.28,32.80"/>
    </edge>
    <edge id=":31_0" function="internal">
        <lane id=":31_0_0" index="0" speed="13.90" length="0.52" width="0.1" shape="913.94,33.86 914.45,33.97"/>
    </edge>
    <edge id=":32_0" function="internal">