<nodes>
<node id="1" x="0" y="0"/>
<node id="2" x="100.0" y="0.0"/>
<node id="3" x="134.903283711" y="3.05364164455"/>
<node id="4" x="168.746048808" y="12.121783222"/>
<node id="5" x="200.5" y="26.9288938393"/>
<node id="6" x="229.200309547" y="47.0250669331"/>
<node id="7" x="253.974933067" y="71.799690453"/>
<node id="8" x="268.572784157" y="91.527553962"/>
<node id="9" x="273.938627473" y="98.3955202144"/>
<node id="10" x="280.415561397" y="104.227377714"/>
<node id="11" x="287.806787567" y="108.845928421"/>
<node id="12" x="295.887727318" y="112.110840009"/>
<node id="13" x="304.412845384" y="113.922909793"/>
<node id="14" x="313.123110366" y="114.227078949"/>
<node id="15" x="321.753865271" y="113.01410545"/>
<node id="16" x="330.042868979" y="110.320844884"/>
<node id="17" x="337.738264305" y="106.229130608"/>
<node id="18" x="344.606230557" y="100.863287292"/>
<node id="19" x="350.438088057" y="94.3863533688"/>
<node id="20" x="355.056638764" y="86.9951271982"/>
<node id="21" x="358.321550352" y="78.9141874474"/>
<node id="22" x="359.413692591" y="74.6911867521"/>
<node id="23" x="361.961879899" y="66.3564416222"/>
<node id="24" x="365.91866782" y="58.5908080813"/>
<node id="25" x="371.163831354" y="51.6302409751"/>
<node id="26" x="377.537998861" y="45.6862336127"/>
<node id="27" x="384.847494488" y="40.9393916501"/>
<node id="28" x="392.870222909" y="37.5339454782"/>
<node id="29" x="401.36241758" y="35.5733678559"/>
<node id="30" x="410.066047463" y="35.117229942"/>
<node id="31" x="418.716657169" y="36.1793912563"/>
<node id="32" x="427.051402298" y="38.7275785647"/>
<node id="33" x="434.817035839" y="42.6843664852"/>
<node id="34" x="441.777602946" y="47.9295300191"/>
<node id="35" x="447.721610308" y="54.3036975267"/>
<node id="36" x="452.468452271" y="61.6131931537"/>
<node id="37" x="455.873898442" y="69.6359215743"/>
<node id="38" x="457.834476065" y="78.128116245"/>
<node id="39" x="458.290613979" y="86.8317461281"/>
<node id="40" x="457.228452664" y="95.4823558339"/>
<node id="41" x="454.680265356" y="103.817100964"/>
<node id="42" x="450.723477436" y="111.582734505"/>
<node id="43" x="445.478313902" y="118.543301611"/>
<node id="44" x="439.104146394" y="124.487308973"/>
<node id="45" x="431.794650767" y="129.234150936"/>
<node id="46" x="423.771922346" y="132.639597108"/>
<node id="47" x="422.102940419" y="133.14985609"/>
<node id="48" x="325.015509129" y="160.989229027"/>
<node id="49" x="320.947164354" y="162.550920268"/>
<node id="50" x="317.211811717" y="164.795346567"/>
<node id="51" x="313.922948016" y="167.654312164"/>
<node id="52" x="311.18050371" y="171.040948839"/>
<node id="53" x="309.067806583" y="174.852355349"/>
<node id="54" x="307.649049867" y="178.972724036"/>
<node id="55" x="306.967341768" y="183.276859582"/>
<node id="56" x="307.04339564" y="187.633983008"/>
<node id="57" x="307.874900626" y="191.911705321"/>
<node id="58" x="309.436591867" y="195.980050096"/>
<node id="59" x="311.681018165" y="199.715402733"/>
<node id="60" x="314.539983763" y="203.004266434"/>
<node id="61" x="317.926620437" y="205.74671074"/>
<node id="62" x="321.738026947" y="207.859407867"/>
<node id="63" x="325.858395634" y="209.278164583"/>
<node id="64" x="330.162531181" y="209.959872682"/>
<node id="65" x="334.519654606" y="209.88381881"/>
<node id="66" x="338.79737692" y="209.052313824"/>
<node id="67" x="434.923546513" y="181.488578243"/>
<node id="68" x="443.478991141" y="179.825568271"/>
<node id="69" x="452.193237991" y="179.673460527"/>
<node id="70" x="460.801509084" y="181.036876726"/>
<node id="71" x="469.042246458" y="183.874390157"/>
<node id="72" x="476.665059478" y="188.099784412"/>
<node id="73" x="483.438332827" y="193.584673023"/>
<node id="74" x="489.156264023" y="200.162400425"/>
<node id="75" x="493.645116619" y="207.6331057"/>
<node id="76" x="496.768499101" y="215.769795249"/>
<node id="77" x="498.431509073" y="224.325239876"/>
<node id="78" x="498.583616817" y="233.039486727"/>
<node id="79" x="497.220200618" y="241.64775782"/>
<node id="80" x="494.382687186" y="249.888495193"/>
<node id="81" x="490.157292932" y="257.511308213"/>
<node id="82" x="484.672404321" y="264.284581563"/>
<node id="83" x="478.094676919" y="270.002512758"/>
<node id="84" x="470.623971644" y="274.491365355"/>
<node id="85" x="462.487282095" y="277.614747836"/>
<node id="86" x="453.931837468" y="279.277757808"/>
<node id="87" x="445.217590617" y="279.429865553"/>
<node id="88" x="436.609319524" y="278.066449353"/>
<node id="89" x="363.837140054" y="259.922307183"/>
<node id="90" x="355.228868961" y="258.558890984"/>
<node id="91" x="346.51462211" y="258.710998729"/>
<node id="92" x="337.959177483" y="260.3740087"/>
<node id="93" x="329.822487934" y="263.497391182"/>
<node id="94" x="322.351782659" y="267.986243778"/>
<node id="95" x="315.774055257" y="273.704174974"/>
<node id="96" x="310.289166646" y="280.477448324"/>
<node id="97" x="306.063772391" y="288.100261343"/>
<node id="98" x="303.22625896" y="296.340998717"/>
<node id="99" x="301.862842761" y="304.94926981"/>
<node id="100" x="302.014950505" y="313.663516661"/>
<node id="101" x="303.677960477" y="322.218961288"/>
<node id="102" x="306.801342959" y="330.355650837"/>
<node id="103" x="311.290195555" y="337.826356112"/>
<node id="104" x="317.008126751" y="344.404083514"/>
<node id="105" x="323.7814001" y="349.888972125"/>
<node id="106" x="331.40421312" y="354.114366379"/>
<node id="107" x="339.644950494" y="356.951879811"/>
<node id="108" x="388.159736807" y="369.047974591"/>
<node id="109" x="396.400474181" y="371.885488023"/>
<node id="110" x="404.023287201" y="376.110882277"/>
<node id="111" x="410.79656055" y="381.595770888"/>
<node id="112" x="416.514491746" y="388.17349829"/>
<node id="113" x="421.003344342" y="395.644203565"/>
<node id="114" x="424.126726824" y="403.780893114"/>
<node id="115" x="425.789736796" y="412.336337741"/>
<node id="116" x="425.94184454" y="421.050584592"/>
<node id="117" x="424.578428341" y="429.658855685"/>
<node id="118" x="421.74091491" y="437.899593059"/>
<node id="119" x="417.515520655" y="445.522406078"/>
<node id="120" x="412.030632044" y="452.295679428"/>
<node id="121" x="405.452904642" y="458.013610624"/>
<node id="122" x="397.982199367" y="462.50246322"/>
<node id="123" x="389.845509818" y="465.625845702"/>
<node id="124" x="381.290065191" y="467.288855673"/>
<node id="125" x="372.57581834" y="467.440963418"/>
<node id="126" x="363.967547247" y="466.077547219"/>
<node id="127" x="355.726809874" y="463.240033787"/>
<node id="128" x="348.103996854" y="459.014639533"/>
<node id="129" x="240.329112422" y="386.319562081"/>
<node id="130" x="236.517705912" y="384.206864954"/>
<node id="131" x="232.397337225" y="382.788108238"/>
<node id="132" x="228.093201679" y="382.106400139"/>
<node id="133" x="223.736078253" y="382.182454011"/>
<node id="134" x="219.45835594" y="383.013958997"/>
<node id="135" x="215.390011165" y="384.575650238"/>
<node id="136" x="211.654658528" y="386.820076536"/>
<node id="137" x="208.365794827" y="389.679042134"/>
<node id="138" x="205.623350521" y="393.065678808"/>
<node id="139" x="203.510653394" y="396.877085318"/>
<node id="140" x="202.091896678" y="400.997454005"/>
<node id="141" x="201.410188579" y="405.301589552"/>
<node id="142" x="174.693459135" y="787.368620801"/>
<node id="143" x="170.603210537" y="813.193434079"/>
<node id="144" x="162.090670242" y="837.915646201"/>
<node id="145" x="149.414487479" y="860.78408526"/>
<node id="146" x="132.959821646" y="881.103905308"/>
<node id="147" x="113.226639439" y="898.257698896"/>
<node id="148" x="90.8145236139" y="911.724256684"/>
<node id="149" x="66.4044549681" y="921.09440413"/>
<node id="150" x="40.7381210857" y="926.083434045"/>
<node id="151" x="14.5953805339" y="926.539757278"/>
<node id="152" x="-11.2294327444" y="922.449508681"/>
<node id="153" x="-35.9516448658" y="913.936968386"/>
<node id="154" x="-58.8200839251" y="901.260785623"/>
<node id="155" x="-79.1399039733" y="884.80611979"/>
<node id="156" x="-96.2936975607" y="865.072937583"/>
<node id="157" x="-97.8139550478" y="862.941615192"/>
<node id="158" x="-102.171742185" y="855.393706462"/>
<node id="159" x="-105.152644148" y="847.20374563"/>
<node id="160" x="-106.666087738" y="838.620580512"/>
<node id="161" x="-106.666087738" y="829.905006237"/>
<node id="162" x="-105.152644148" y="821.321841119"/>
<node id="163" x="-102.171742185" y="813.131880288"/>
<node id="164" x="-97.8139550478" y="805.583971557"/>
<node id="165" x="-92.2116918927" y="798.907454315"/>
<node id="166" x="-85.5351746509" y="793.30519116"/>
<node id="167" x="-77.9872659204" y="788.947404023"/>
<node id="168" x="-69.7973050885" y="785.96650206"/>
<node id="169" x="-61.2141399708" y="784.45305847"/>
<node id="170" x="-52.498565696" y="784.45305847"/>
<node id="171" x="-43.7829914212" y="784.45305847"/>
<node id="172" x="-35.1998263035" y="782.93961488"/>
<node id="173" x="-27.0098654716" y="779.958712917"/>
<node id="174" x="-19.4619567411" y="775.60092578"/>
<node id="175" x="-12.7854394993" y="769.998662625"/>
<node id="176" x="-7.18317634415" y="763.322145383"/>
<node id="177" x="-2.82538920677" y="755.774236652"/>
<node id="178" x="-0.864849778638" y="750.921731288"/>
<node id="179" x="3.35212672094" y="734.008362347"/>
<node id="180" x="4.56806217707" y="716.619675199"/>
<node id="181" x="2.7460110062" y="699.284016305"/>
<node id="182" x="-2.05866468885" y="682.528120888"/>
<node id="183" x="-9.69997726836" y="666.861108352"/>
<node id="184" x="-19.9457493163" y="652.759012944"/>
<node id="185" x="-32.4846682336" y="640.650319697"/>
<node id="186" x="-46.9357453139" y="630.902945129"/>
<node id="187" x="-62.8598918929" y="623.813058283"/>
<node id="188" x="-79.7732608345" y="619.596081783"/>
<node id="189" x="-96.6866297762" y="615.379105283"/>
<node id="190" x="-112.610776355" y="608.289218437"/>
<node id="191" x="-127.061853436" y="598.541843869"/>
<node id="192" x="-139.600772353" y="586.433150623"/>
<node id="193" x="-149.846544401" y="572.331055215"/>
<node id="194" x="-157.48785698" y="556.664042678"/>
<node id="195" x="-162.292532675" y="539.908147261"/>
<node id="196" x="-164.114583846" y="522.572488367"/>
<node id="197" x="-162.89864839" y="505.18380122"/>
<node id="198" x="-158.68167189" y="488.270432278"/>
<node id="199" x="-151.591785044" y="472.346285699"/>
<node id="200" x="-141.844410476" y="457.895208619"/>
<node id="201" x="-129.73571723" y="445.356289701"/>
<node id="202" x="-115.633621822" y="435.110517653"/>
<node id="203" x="-99.9666092851" y="427.469205074"/>
<node id="204" x="-83.2107138682" y="422.664529379"/>
<node id="205" x="-65.8750549743" y="420.842478208"/>
<node id="206" x="-48.4863678265" y="422.058413664"/>
<node id="207" x="-31.0976806787" y="423.27434912"/>
<node id="208" x="-13.7620217848" y="421.452297949"/>
<node id="209" x="2.99387363205" y="416.647622254"/>
<node id="210" x="18.6608861685" y="409.006309675"/>
<node id="211" x="32.7629815766" y="398.760537627"/>
<node id="212" x="44.8716748232" y="386.221618709"/>
<node id="213" x="54.6190493915" y="371.770541629"/>
<node id="214" x="61.7089362375" y="355.84639505"/>
<node id="215" x="65.925912737" y="338.933026109"/>
<node id="216" x="67.1418481932" y="321.544338961"/>
<node id="217" x="65.3197970223" y="304.208680067"/>
<node id="218" x="60.5151213272" y="287.45278465"/>
<node id="219" x="52.8738087477" y="271.785772114"/>
<node id="220" x="42.6280366998" y="257.683676705"/>
<node id="221" x="30.0891177825" y="245.574983459"/>
<node id="222" x="15.6380407022" y="235.827608891"/>
<node id="223" x="-0.286105876762" y="228.737722045"/>
<node id="224" x="-17.1994748185" y="224.520745545"/>
<node id="225" x="-32.8429213225" y="223.289579605"/>
<node id="226" x="-182.842921322" y="223.289579605"/>
<node id="227" x="-382.842921322" y="223.289579605"/>
<node id="228" x="-402.291517221" y="221.588047942"/>
<node id="229" x="-421.149177375" y="216.535153133"/>
<node id="230" x="-438.842921322" y="208.284424828"/>
<node id="231" x="-454.835133607" y="197.086557234"/>
<node id="232" x="-468.639898952" y="183.281791889"/>
<node id="233" x="-479.837766546" y="167.289579605"/>
<node id="234" x="-488.08849485" y="149.595835657"/>
<node id="235" x="-493.14138966" y="130.738175503"/>
<node id="236" x="-494.842921322" y="111.289579605"/>
<node id="237" x="-493.14138966" y="91.8409837058"/>
<node id="238" x="-488.08849485" y="72.983323552"/>
<node id="239" x="-479.837766546" y="55.2895796045"/>
<node id="240" x="-468.639898952" y="39.2973673196"/>
<node id="241" x="-454.835133607" y="25.4926019752"/>
<node id="242" x="-438.842921322" y="14.2947343807"/>
<node id="243" x="-421.149177375" y="6.04400607649"/>
<node id="244" x="-402.291517221" y="0.991111267148"/>
<node id="245" x="-382.842921322" y="-0.710420395484"/>
<node id="246" x="-0.842921322478" y="-0.710420395484"/>
</nodes>
