<?xml version="1.0" encoding="UTF-8"?>

<!-- generated on Tue Mar  8 10:35:05 2016 by SUMO netconvert Version dev-SVN-r19787
<?xml version="1.0" encoding="UTF-8"?>

<configuration xmlns:xsi="http://www.w3.org/2001/XMLSchema-instance" xsi:noNamespaceSchemaLocation="http://sumo.dlr.de/xsd/netconvertConfiguration.xsd">

    <input>
        <node-files value="Track01.nod.xml"/>
        <edge-files value="Track01.edg.xml"/>
    </input>

    <output>
        <output-file value="Track01.net.xml"/>
    </output>

</configuration>
-->

<net version="0.25" xmlns:xsi="http://www.w3.org/2001/XMLSchema-instance" xsi:noNamespaceSchemaLocation="http://sumo.dlr.de/xsd/net_file.xsd">

    <location netOffset="494.84,0.71" convBoundary="0.00,0.00,993.43,927.25" origBoundary="-494.84,-0.71,498.58,926.54" projParameter="!"/>

    <edge id=":1_0" function="internal">
        <lane id=":1_0_0" index="0" speed="13.90" length="0.10" shape="494.85,-0.94 494.84,-0.94"/>
    </edge>
    <edge id=":10_0" function="internal">
        <lane id=":10_0_0" index="0" speed="13.90" length="0.28" shape="776.15,103.52 776.37,103.69"/>
    </edge>
    <edge id=":100_0" function="internal">
        <lane id=":100_0_0" index="0" speed="13.90" length="0.28" shape="798.50,314.06 798.53,314.34"/>
    </edge>
    <edge id=":101_0" function="internal">
        <lane id=":101_0_0" index="0" speed="13.90" length="0.28" shape="800.09,322.34 800.16,322.60"/>
    </edge>
    <edge id=":102_0" function="internal">
        <lane id=":102_0_0" index="0" speed="13.90" length="0.28" shape="803.08,330.21 803.21,330.46"/>
    </edge>
    <edge id=":103_0" function="internal">
        <lane id=":103_0_0" index="0" speed="13.90" length="0.28" shape="807.40,337.44 807.56,337.67"/>
    </edge>
    <edge id=":104_0" function="internal">
        <lane id=":104_0_0" index="0" speed="13.90" length="0.28" shape="812.91,343.82 813.11,344.01"/>
    </edge>
    <edge id=":105_0" function="internal">
        <lane id=":105_0_0" index="0" speed="13.90" length="0.28" shape="819.44,349.14 819.67,349.29"/>
    </edge>
    <edge id=":106_0" function="internal">
        <lane id=":106_0_0" index="0" speed="13.90" length="0.28" shape="826.80,353.24 827.05,353.36"/>
    </edge>
    <edge id=":107_0" function="internal">
        <lane id=":107_0_0" index="0" speed="13.90" length="0.14" shape="834.89,356.06 835.02,356.10"/>
    </edge>
    <edge id=":108_0" function="internal">
        <lane id=":108_0_0" index="0" speed="13.90" length="0.14" shape="883.40,368.16 883.54,368.20"/>
    </edge>
    <edge id=":109_0" function="internal">
        <lane id=":109_0_0" index="0" speed="13.90" length="0.28" shape="891.78,371.04 892.04,371.15"/>
    </edge>
    <edge id=":11_0" function="internal">
        <lane id=":11_0_0" index="0" speed="13.90" length="0.28" shape="783.28,108.01 783.53,108.13"/>
    </edge>
    <edge id=":110_0" function="internal">
        <lane id=":110_0_0" index="0" speed="13.90" length="0.28" shape="899.67,375.38 899.90,375.54"/>
    </edge>
    <edge id=":111_0" function="internal">
        <lane id=":111_0_0" index="0" speed="13.90" length="0.28" shape="906.68,381.03 906.88,381.22"/>
    </edge>
    <edge id=":112_0" function="internal">
        <lane id=":112_0_0" index="0" speed="13.90" length="0.28" shape="912.61,387.80 912.77,388.03"/>
    </edge>
    <edge id=":113_0" function="internal">
        <lane id=":113_0_0" index="0" speed="13.90" length="0.28" shape="917.26,395.51 917.39,395.76"/>
    </edge>
    <edge id=":114_0" function="internal">
        <lane id=":114_0_0" index="0" speed="13.90" length="0.28" shape="920.51,403.90 920.59,404.17"/>
    </edge>
    <edge id=":115_0" function="internal">
        <lane id=":115_0_0" index="0" speed="13.90" length="0.28" shape="922.25,412.74 922.28,413.01"/>
    </edge>
    <edge id=":116_0" function="internal">
        <lane id=":116_0_0" index="0" speed="13.90" length="0.28" shape="922.43,421.74 922.42,422.01"/>
    </edge>
    <edge id=":117_0" function="internal">
        <lane id=":117_0_0" index="0" speed="13.90" length="0.28" shape="921.05,430.63 920.98,430.90"/>
    </edge>
    <edge id=":118_0" function="internal">
        <lane id=":118_0_0" index="0" speed="13.90" length="0.28" shape="918.14,439.15 918.03,439.41"/>
    </edge>
    <edge id=":119_0" function="internal">
        <lane id=":119_0_0" index="0" speed="13.90" length="0.28" shape="913.80,447.04 913.64,447.27"/>
    </edge>
    <edge id=":12_0" function="internal">
        <lane id=":12_0_0" index="0" speed="13.90" length="0.28" shape="791.09,111.18 791.35,111.27"/>
    </edge>
    <edge id=":120_0" function="internal">
        <lane id=":120_0_0" index="0" speed="13.90" length="0.28" shape="908.15,454.05 907.96,454.25"/>
    </edge>
    <edge id=":121_0" function="internal">
        <lane id=":121_0_0" index="0" speed="13.90" length="0.28" shape="901.38,459.97 901.15,460.14"/>
    </edge>
    <edge id=":122_0" function="internal">
        <lane id=":122_0_0" index="0" speed="13.90" length="0.28" shape="893.67,464.63 893.42,464.75"/>
    </edge>
    <edge id=":123_0" function="internal">
        <lane id=":123_0_0" index="0" speed="13.90" length="0.28" shape="885.28,467.88 885.01,467.96"/>
    </edge>
    <edge id=":124_0" function="internal">
        <lane id=":124_0_0" index="0" speed="13.90" length="0.28" shape="876.44,469.62 876.17,469.65"/>
    </edge>
    <edge id=":125_0" function="internal">
        <lane id=":125_0_0" index="0" speed="13.90" length="0.28" shape="867.44,469.80 867.16,469.78"/>
    </edge>
    <edge id=":126_0" function="internal">
        <lane id=":126_0_0" index="0" speed="13.90" length="0.28" shape="858.55,468.42 858.28,468.35"/>
    </edge>
    <edge id=":127_0" function="internal">
        <lane id=":127_0_0" index="0" speed="13.90" length="0.28" shape="850.03,465.51 849.77,465.40"/>
    </edge>
    <edge id=":128_0" function="internal">
        <lane id=":128_0_0" index="0" speed="13.90" length="0.14" shape="842.15,461.17 842.03,461.09"/>
    </edge>
    <edge id=":129_0" function="internal">
        <lane id=":129_0_0" index="0" speed="13.90" length="0.14" shape="734.37,388.48 734.25,388.40"/>
    </edge>
    <edge id=":13_0" function="internal">
        <lane id=":13_0_0" index="0" speed="13.90" length="0.28" shape="799.32,112.96 799.60,112.99"/>
    </edge>
    <edge id=":130_0" function="internal">
        <lane id=":130_0_0" index="0" speed="13.90" length="0.28" shape="730.81,386.50 730.55,386.38"/>
    </edge>
    <edge id=":131_0" function="internal">
        <lane id=":131_0_0" index="0" speed="13.90" length="0.28" shape="726.97,385.15 726.70,385.08"/>
    </edge>
    <edge id=":132_0" function="internal">
        <lane id=":132_0_0" index="0" speed="13.90" length="0.28" shape="722.96,384.49 722.68,384.47"/>
    </edge>
    <edge id=":133_0" function="internal">
        <lane id=":133_0_0" index="0" speed="13.90" length="0.28" shape="718.89,384.54 718.61,384.57"/>
    </edge>
    <edge id=":134_0" function="internal">
        <lane id=":134_0_0" index="0" speed="13.90" length="0.28" shape="714.90,385.29 714.63,385.37"/>
    </edge>
    <edge id=":135_0" function="internal">
        <lane id=":135_0_0" index="0" speed="13.90" length="0.28" shape="711.09,386.72 710.84,386.85"/>
    </edge>
    <edge id=":136_0" function="internal">
        <lane id=":136_0_0" index="0" speed="13.90" length="0.28" shape="707.59,388.80 707.37,388.96"/>
    </edge>
    <edge id=":137_0" function="internal">
        <lane id=":137_0_0" index="0" speed="13.90" length="0.28" shape="704.51,391.45 704.31,391.65"/>
    </edge>
    <edge id=":138_0" function="internal">
        <lane id=":138_0_0" index="0" speed="13.90" length="0.28" shape="701.93,394.59 701.77,394.82"/>
    </edge>
    <edge id=":139_0" function="internal">
        <lane id=":139_0_0" index="0" speed="13.90" length="0.28" shape="699.93,398.14 699.82,398.39"/>
    </edge>
    <edge id=":14_0" function="internal">
        <lane id=":14_0_0" index="0" speed="13.90" length="0.28" shape="807.74,113.28 808.02,113.26"/>
    </edge>
    <edge id=":140_0" function="internal">
        <lane id=":140_0_0" index="0" speed="13.90" length="0.28" shape="698.59,401.98 698.52,402.25"/>
    </edge>
    <edge id=":141_0" function="internal">
        <lane id=":141_0_0" index="0" speed="13.90" length="0.14" shape="697.90,406.13 697.89,406.27"/>
    </edge>
    <edge id=":142_0" function="internal">
        <lane id=":142_0_0" index="0" speed="13.90" length="0.14" shape="671.18,788.20 671.17,788.34"/>
    </edge>
    <edge id=":143_0" function="internal">
        <lane id=":143_0_0" index="0" speed="13.90" length="0.28" shape="667.08,814.17 667.01,814.44"/>
    </edge>
    <edge id=":144_0" function="internal">
        <lane id=":144_0_0" index="0" speed="13.90" length="0.28" shape="658.49,839.17 658.38,839.42"/>
    </edge>
    <edge id=":145_0" function="internal">
        <lane id=":145_0_0" index="0" speed="13.90" length="0.28" shape="645.70,862.30 645.54,862.53"/>
    </edge>
    <edge id=":146_0" function="internal">
        <lane id=":146_0_0" index="0" speed="13.90" length="0.28" shape="629.08,882.86 628.89,883.06"/>
    </edge>
    <edge id=":147_0" function="internal">
        <lane id=":147_0_0" index="0" speed="13.90" length="0.28" shape="609.15,900.22 608.92,900.38"/>
    </edge>
    <edge id=":148_0" function="internal">
        <lane id=":148_0_0" index="0" speed="13.90" length="0.28" shape="586.50,913.85 586.25,913.97"/>
    </edge>
    <edge id=":149_0" function="internal">
        <lane id=":149_0_0" index="0" speed="13.90" length="0.28" shape="561.83,923.35 561.57,923.42"/>
    </edge>
    <edge id=":15_0" function="internal">
        <lane id=":15_0_0" index="0" speed="13.90" length="0.28" shape="816.09,112.13 816.36,112.07"/>
    </edge>
    <edge id=":150_0" function="internal">
        <lane id=":150_0_0" index="0" speed="13.90" length="0.28" shape="535.89,928.41 535.61,928.44"/>
    </edge>
    <edge id=":151_0" function="internal">
        <lane id=":151_0_0" index="0" speed="13.90" length="0.28" shape="509.46,928.90 509.18,928.88"/>
    </edge>
    <edge id=":152_0" function="internal">
        <lane id=":152_0_0" index="0" speed="13.90" length="0.28" shape="483.35,924.79 483.08,924.72"/>
    </edge>
    <edge id=":153_0" function="internal">
        <lane id=":153_0_0" index="0" speed="13.90" length="0.28" shape="458.35,916.21 458.10,916.09"/>
    </edge>
    <edge id=":154_0" function="internal">
        <lane id=":154_0_0" index="0" speed="13.90" length="0.28" shape="435.22,903.41 434.99,903.26"/>
    </edge>
    <edge id=":155_0" function="internal">
        <lane id=":155_0_0" index="0" speed="13.90" length="0.28" shape="414.66,886.80 414.46,886.60"/>
    </edge>
    <edge id=":156_0" function="internal">
        <lane id=":156_0_0" index="0" speed="13.90" length="0.15" shape="397.30,866.86 397.21,866.74"/>
    </edge>
    <edge id=":157_0" function="internal">
        <lane id=":157_0_0" index="0" speed="13.90" length="0.15" shape="395.68,864.61 395.60,864.48"/>
    </edge>
    <edge id=":158_0" function="internal">
        <lane id=":158_0_0" index="0" speed="13.90" length="0.28" shape="391.24,856.93 391.12,856.67"/>
    </edge>
    <edge id=":159_0" function="internal">
        <lane id=":159_0_0" index="0" speed="13.90" length="0.28" shape="388.14,848.47 388.07,848.20"/>
    </edge>
    <edge id=":16_0" function="internal">
        <lane id=":16_0_0" index="0" speed="13.90" length="0.28" shape="824.11,109.55 824.36,109.44"/>
    </edge>
    <edge id=":160_0" function="internal">
        <lane id=":160_0_0" index="0" speed="13.90" length="0.28" shape="386.55,839.61 386.53,839.34"/>
    </edge>
    <edge id=":161_0" function="internal">
        <lane id=":161_0_0" index="0" speed="13.90" length="0.28" shape="386.53,830.61 386.55,830.33"/>
    </edge>
    <edge id=":162_0" function="internal">
        <lane id=":162_0_0" index="0" speed="13.90" length="0.28" shape="388.07,821.74 388.14,821.47"/>
    </edge>
    <edge id=":163_0" function="internal">
        <lane id=":163_0_0" index="0" speed="13.90" length="0.28" shape="391.12,813.27 391.24,813.02"/>
    </edge>
    <edge id=":164_0" function="internal">
        <lane id=":164_0_0" index="0" speed="13.90" length="0.28" shape="395.60,805.47 395.76,805.24"/>
    </edge>
    <edge id=":165_0" function="internal">
        <lane id=":165_0_0" index="0" speed="13.90" length="0.28" shape="401.37,798.55 401.57,798.36"/>
    </edge>
    <edge id=":166_0" function="internal">
        <lane id=":166_0_0" index="0" speed="13.90" length="0.28" shape="408.25,792.75 408.48,792.59"/>
    </edge>
    <edge id=":167_0" function="internal">
        <lane id=":167_0_0" index="0" speed="13.90" length="0.28" shape="416.03,788.23 416.29,788.11"/>
    </edge>
    <edge id=":168_0" function="internal">
        <lane id=":168_0_0" index="0" speed="13.90" length="0.28" shape="424.49,785.12 424.75,785.05"/>
    </edge>
    <edge id=":169_0" function="internal">
        <lane id=":169_0_0" index="0" speed="13.90" length="0.28" shape="433.35,783.54 433.62,783.51"/>
    </edge>
    <edge id=":17_0" function="internal">
        <lane id=":17_0_0" index="0" speed="13.90" length="0.28" shape="831.56,105.62 831.79,105.46"/>
    </edge>
    <edge id=":170_0" function="internal">
        <lane id=":170_0_0" index="0" speed="13.90" length="0.10" shape="442.34,783.51 442.34,783.51"/>
    </edge>
    <edge id=":171_0" function="internal">
        <lane id=":171_0_0" index="0" speed="13.90" length="0.28" shape="450.78,783.51 451.05,783.49"/>
    </edge>
    <edge id=":172_0" function="internal">
        <lane id=":172_0_0" index="0" speed="13.90" length="0.28" shape="459.08,782.07 459.35,782.00"/>
    </edge>
    <edge id=":173_0" function="internal">
        <lane id=":173_0_0" index="0" speed="13.90" length="0.28" shape="467.00,779.22 467.25,779.10"/>
    </edge>
    <edge id=":174_0" function="internal">
        <lane id=":174_0_0" index="0" speed="13.90" length="0.28" shape="474.31,775.02 474.54,774.86"/>
    </edge>
    <edge id=":175_0" function="internal">
        <lane id=":175_0_0" index="0" speed="13.90" length="0.28" shape="480.78,769.63 480.98,769.43"/>
    </edge>
    <edge id=":176_0" function="internal">
        <lane id=":176_0_0" index="0" speed="13.90" length="0.28" shape="486.21,763.19 486.37,762.96"/>
    </edge>
    <edge id=":177_0" function="internal">
        <lane id=":177_0_0" index="0" speed="13.90" length="0.22" shape="490.47,755.86 490.57,755.66"/>
    </edge>
    <edge id=":178_0" function="internal">
        <lane id=":178_0_0" index="0" speed="13.90" length="0.22" shape="492.36,751.22 492.43,751.01"/>
    </edge>
    <edge id=":179_0" function="internal">
        <lane id=":179_0_0" index="0" speed="13.90" length="0.28" shape="496.53,734.60 496.57,734.32"/>
    </edge>
    <edge id=":18_0" function="internal">
        <lane id=":18_0_0" index="0" speed="13.90" length="0.28" shape="838.21,100.45 838.41,100.26"/>
    </edge>
    <edge id=":180_0" function="internal">
        <lane id=":180_0_0" index="0" speed="13.90" length="0.28" shape="497.75,717.50 497.74,717.22"/>
    </edge>
    <edge id=":181_0" function="internal">
        <lane id=":181_0_0" index="0" speed="13.90" length="0.28" shape="495.98,700.45 495.92,700.18"/>
    </edge>
    <edge id=":182_0" function="internal">
        <lane id=":182_0_0" index="0" speed="13.90" length="0.28" shape="491.28,683.97 491.18,683.71"/>
    </edge>
    <edge id=":183_0" function="internal">
        <lane id=":183_0_0" index="0" speed="13.90" length="0.28" shape="483.78,668.55 483.64,668.31"/>
    </edge>
    <edge id=":184_0" function="internal">
        <lane id=":184_0_0" index="0" speed="13.90" length="0.28" shape="473.73,654.67 473.55,654.46"/>
    </edge>
    <edge id=":185_0" function="internal">
        <lane id=":185_0_0" index="0" speed="13.90" length="0.28" shape="461.42,642.75 461.20,642.57"/>
    </edge>
    <edge id=":186_0" function="internal">
        <lane id=":186_0_0" index="0" speed="13.90" length="0.28" shape="447.22,633.14 446.98,633.01"/>
    </edge>
    <edge id=":187_0" function="internal">
        <lane id=":187_0_0" index="0" speed="13.90" length="0.28" shape="431.57,626.15 431.31,626.06"/>
    </edge>
    <edge id=":188_0" function="internal">
        <lane id=":188_0_0" index="0" speed="13.90" length="0.10" shape="414.67,621.91 414.67,621.91"/>
    </edge>
    <edge id=":189_0" function="internal">
        <lane id=":189_0_0" index="0" speed="13.90" length="0.28" shape="397.75,617.69 397.49,617.60"/>
    </edge>
    <edge id=":19_0" function="internal">
        <lane id=":19_0_0" index="0" speed="13.90" length="0.28" shape="843.86,94.20 844.03,93.98"/>
    </edge>
    <edge id=":190_0" function="internal">
        <lane id=":190_0_0" index="0" speed="13.90" length="0.28" shape="381.56,610.51 381.31,610.37"/>
    </edge>
    <edge id=":191_0" function="internal">
        <lane id=":191_0_0" index="0" speed="13.90" length="0.28" shape="366.85,600.62 366.64,600.44"/>
    </edge>
    <edge id=":192_0" function="internal">
        <lane id=":192_0_0" index="0" speed="13.90" length="0.28" shape="354.09,588.33 353.91,588.12"/>
    </edge>
    <edge id=":193_0" function="internal">
        <lane id=":193_0_0" index="0" speed="13.90" length="0.28" shape="343.66,574.01 343.52,573.77"/>
    </edge>
    <edge id=":194_0" function="internal">
        <lane id=":194_0_0" index="0" speed="13.90" length="0.28" shape="335.87,558.09 335.77,557.83"/>
    </edge>
    <edge id=":195_0" function="internal">
        <lane id=":195_0_0" index="0" speed="13.90" length="0.28" shape="330.96,541.07 330.91,540.80"/>
    </edge>
    <edge id=":196_0" function="internal">
        <lane id=":196_0_0" index="0" speed="13.90" length="0.28" shape="329.09,523.45 329.08,523.17"/>
    </edge>
    <edge id=":197_0" function="internal">
        <lane id=":197_0_0" index="0" speed="13.90" length="0.28" shape="330.30,505.77 330.34,505.50"/>
    </edge>
    <edge id=":198_0" function="internal">
        <lane id=":198_0_0" index="0" speed="13.90" length="0.28" shape="334.56,488.58 334.65,488.31"/>
    </edge>
    <edge id=":199_0" function="internal">
        <lane id=":199_0_0" index="0" speed="13.90" length="0.28" shape="341.75,472.38 341.88,472.14"/>
    </edge>
    <edge id=":2_0" function="internal">
        <lane id=":2_0_0" index="0" speed="13.90" length="0.14" shape="594.85,-0.94 594.98,-0.93"/>
    </edge>
    <edge id=":20_0" function="internal">
        <lane id=":20_0_0" index="0" speed="13.90" length="0.28" shape="848.35,87.07 848.48,86.82"/>
    </edge>
    <edge id=":200_0" function="internal">
        <lane id=":200_0_0" index="0" speed="13.90" length="0.28" shape="351.63,457.68 351.81,457.46"/>
    </edge>
    <edge id=":201_0" function="internal">
        <lane id=":201_0_0" index="0" speed="13.90" length="0.28" shape="363.92,444.92 364.13,444.73"/>
    </edge>
    <edge id=":202_0" function="internal">
        <lane id=":202_0_0" index="0" speed="13.90" length="0.28" shape="378.24,434.48 378.48,434.34"/>
    </edge>
    <edge id=":203_0" function="internal">
        <lane id=":203_0_0" index="0" speed="13.90" length="0.28" shape="394.16,426.69 394.42,426.59"/>
    </edge>
    <edge id=":204_0" function="internal">
        <lane id=":204_0_0" index="0" speed="13.90" length="0.28" shape="411.18,421.79 411.46,421.73"/>
    </edge>
    <edge id=":205_0" function="internal">
        <lane id=":205_0_0" index="0" speed="13.90" length="0.28" shape="428.80,419.91 429.08,419.91"/>
    </edge>
    <edge id=":206_0" function="internal">
        <lane id=":206_0_0" index="0" speed="13.90" length="0.10" shape="446.47,421.12 446.47,421.12"/>
    </edge>
    <edge id=":207_0" function="internal">
        <lane id=":207_0_0" index="0" speed="13.90" length="0.28" shape="463.58,422.32 463.86,422.31"/>
    </edge>
    <edge id=":208_0" function="internal">
        <lane id=":208_0_0" index="0" speed="13.90" length="0.28" shape="480.63,420.55 480.90,420.50"/>
    </edge>
    <edge id=":209_0" function="internal">
        <lane id=":209_0_0" index="0" speed="13.90" length="0.28" shape="497.11,415.85 497.37,415.75"/>
    </edge>
    <edge id=":21_0" function="internal">
        <lane id=":21_0_0" index="0" speed="13.90" length="0.21" shape="851.55,79.20 851.62,79.01"/>
    </edge>
    <edge id=":210_0" function="internal">
        <lane id=":210_0_0" index="0" speed="13.90" length="0.28" shape="512.52,408.36 512.76,408.21"/>
    </edge>
    <edge id=":211_0" function="internal">
        <lane id=":211_0_0" index="0" speed="13.90" length="0.28" shape="526.41,398.30 526.62,398.12"/>
    </edge>
    <edge id=":212_0" function="internal">
        <lane id=":212_0_0" index="0" speed="13.90" length="0.28" shape="538.33,385.99 538.51,385.77"/>
    </edge>
    <edge id=":213_0" function="internal">
        <lane id=":213_0_0" index="0" speed="13.90" length="0.28" shape="547.94,371.79 548.07,371.55"/>
    </edge>
    <edge id=":214_0" function="internal">
        <lane id=":214_0_0" index="0" speed="13.90" length="0.28" shape="554.93,356.15 555.02,355.88"/>
    </edge>
    <edge id=":215_0" function="internal">
        <lane id=":215_0_0" index="0" speed="13.90" length="0.28" shape="559.10,339.52 559.14,339.24"/>
    </edge>
    <edge id=":216_0" function="internal">
        <lane id=":216_0_0" index="0" speed="13.90" length="0.28" shape="560.32,322.42 560.31,322.14"/>
    </edge>
    <edge id=":217_0" function="internal">
        <lane id=":217_0_0" index="0" speed="13.90" length="0.28" shape="558.55,305.37 558.50,305.10"/>
    </edge>
    <edge id=":218_0" function="internal">
        <lane id=":218_0_0" index="0" speed="13.90" length="0.28" shape="553.85,288.89 553.75,288.63"/>
    </edge>
    <edge id=":219_0" function="internal">
        <lane id=":219_0_0" index="0" speed="13.90" length="0.28" shape="546.36,273.48 546.21,273.24"/>
    </edge>
    <edge id=":22_0" function="internal">
        <lane id=":22_0_0" index="0" speed="13.90" length="0.10" shape="852.66,74.99 852.68,74.92"/>
    </edge>
    <edge id=":220_0" function="internal">
        <lane id=":220_0_0" index="0" speed="13.90" length="0.28" shape="536.30,259.59 536.12,259.38"/>
    </edge>
    <edge id=":221_0" function="internal">
        <lane id=":221_0_0" index="0" speed="13.90" length="0.28" shape="523.99,247.67 523.77,247.49"/>
    </edge>
    <edge id=":222_0" function="internal">
        <lane id=":222_0_0" index="0" speed="13.90" length="0.28" shape="509.79,238.06 509.55,237.93"/>
    </edge>
    <edge id=":223_0" function="internal">
        <lane id=":223_0_0" index="0" speed="13.90" length="0.28" shape="494.15,231.07 493.88,230.98"/>
    </edge>
    <edge id=":224_0" function="internal">
        <lane id=":224_0_0" index="0" speed="13.90" length="0.26" shape="477.51,226.90 477.24,226.85"/>
    </edge>
    <edge id=":225_0" function="internal">
        <lane id=":225_0_0" index="0" speed="13.90" length="0.13" shape="462.00,225.65 461.87,225.65"/>
    </edge>
    <edge id=":226_0" function="internal">
        <lane id=":226_0_0" index="0" speed="13.90" length="0.10" shape="312.00,225.65 312.00,225.65"/>
    </edge>
    <edge id=":227_0" function="internal">
        <lane id=":227_0_0" index="0" speed="13.90" length="0.14" shape="112.00,225.65 111.86,225.64"/>
    </edge>
    <edge id=":228_0" function="internal">
        <lane id=":228_0_0" index="0" speed="13.90" length="0.28" shape="92.40,223.94 92.13,223.89"/>
    </edge>
    <edge id=":229_0" function="internal">
        <lane id=":229_0_0" index="0" speed="13.90" length="0.28" shape="73.26,218.84 73.00,218.74"/>
    </edge>
    <edge id=":23_0" function="internal">
        <lane id=":23_0_0" index="0" speed="13.90" length="0.28" shape="855.23,66.58 855.33,66.32"/>
    </edge>
    <edge id=":230_0" function="internal">
        <lane id=":230_0_0" index="0" speed="13.90" length="0.28" shape="55.30,210.49 55.06,210.35"/>
    </edge>
    <edge id=":231_0" function="internal">
        <lane id=":231_0_0" index="0" speed="13.90" length="0.28" shape="39.06,199.15 38.84,198.97"/>
    </edge>
    <edge id=":232_0" function="internal">
        <lane id=":232_0_0" index="0" speed="13.90" length="0.28" shape="25.03,185.16 24.85,184.94"/>
    </edge>
    <edge id=":233_0" function="internal">
        <lane id=":233_0_0" index="0" speed="13.90" length="0.28" shape="13.65,168.94 13.51,168.70"/>
    </edge>
    <edge id=":234_0" function="internal">
        <lane id=":234_0_0" index="0" speed="13.90" length="0.28" shape="5.26,151.00 5.16,150.74"/>
    </edge>
    <edge id=":235_0" function="internal">
        <lane id=":235_0_0" index="0" speed="13.90" length="0.28" shape="0.11,131.87 0.06,131.60"/>
    </edge>
    <edge id=":236_0" function="internal">
        <lane id=":236_0_0" index="0" speed="13.90" length="0.28" shape="-1.64,112.14 -1.64,111.86"/>
    </edge>
    <edge id=":237_0" function="internal">
        <lane id=":237_0_0" index="0" speed="13.90" length="0.28" shape="0.06,92.40 0.11,92.13"/>
    </edge>
    <edge id=":238_0" function="internal">
        <lane id=":238_0_0" index="0" speed="13.90" length="0.28" shape="5.16,73.26 5.26,73.00"/>
    </edge>
    <edge id=":239_0" function="internal">
        <lane id=":239_0_0" index="0" speed="13.90" length="0.28" shape="13.51,55.30 13.65,55.06"/>
    </edge>
    <edge id=":24_0" function="internal">
        <lane id=":24_0_0" index="0" speed="13.90" length="0.28" shape="859.29,58.55 859.44,58.31"/>
    </edge>
    <edge id=":240_0" function="internal">
        <lane id=":240_0_0" index="0" speed="13.90" length="0.28" shape="24.85,39.06 25.03,38.84"/>
    </edge>
    <edge id=":241_0" function="internal">
        <lane id=":241_0_0" index="0" speed="13.90" length="0.28" shape="38.84,25.03 39.06,24.85"/>
    </edge>
    <edge id=":242_0" function="internal">
        <lane id=":242_0_0" index="0" speed="13.90" length="0.28" shape="55.06,13.65 55.30,13.51"/>
    </edge>
    <edge id=":243_0" function="internal">
        <lane id=":243_0_0" index="0" speed="13.90" length="0.28" shape="73.00,5.26 73.26,5.16"/>
    </edge>
    <edge id=":244_0" function="internal">
        <lane id=":244_0_0" index="0" speed="13.90" length="0.28" shape="92.13,0.11 92.40,0.06"/>
    </edge>
    <edge id=":245_0" function="internal">
        <lane id=":245_0_0" index="0" speed="13.90" length="0.14" shape="111.86,-1.64 112.00,-1.65"/>
    </edge>
    <edge id=":25_0" function="internal">
        <lane id=":25_0_0" index="0" speed="13.90" length="0.28" shape="864.69,51.34 864.88,51.14"/>
    </edge>
    <edge id=":26_0" function="internal">
        <lane id=":26_0_0" index="0" speed="13.90" length="0.28" shape="871.26,45.19 871.48,45.02"/>
    </edge>
    <edge id=":27_0" function="internal">
        <lane id=":27_0_0" index="0" speed="13.90" length="0.28" shape="878.80,40.26 879.04,40.13"/>
    </edge>
    <edge id=":28_0" function="internal">
        <lane id=":28_0_0" index="0" speed="13.90" length="0.28" shape="887.07,36.72 887.34,36.64"/>
    </edge>
    <edge id=":29_0" function="internal">
        <lane id=":29_0_0" index="0" speed="13.90" length="0.28" shape="895.84,34.68 896.11,34.64"/>
    </edge>
    <edge id=":3_0" function="internal">
        <lane id=":3_0_0" index="0" speed="13.90" length="0.28" shape="629.89,2.12 630.17,2.17"/>
    </edge>
    <edge id=":30_0" function="internal">
        <lane id=":30_0_0" index="0" speed="13.90" length="0.28" shape="904.83,34.18 905.11,34.19"/>
    </edge>
    <edge id=":31_0" function="internal">
        <lane id=":31_0_0" index="0" speed="13.90" length="0.28" shape="913.77,35.25 914.04,35.31"/>
    </edge>
    <edge id=":32_0" function="internal">
        <lane id=":32_0_0" index="0" speed="13.90" length="0.28" shape="922.38,37.86 922.64,37.97"/>
    </edge>
    <edge id=":33_0" function="internal">
        <lane id=":33_0_0" index="0" speed="13.90" length="0.28" shape="930.41,41.93 930.65,42.07"/>
    </edge>
    <edge id=":34_0" function="internal">
        <lane id=":34_0_0" index="0" speed="13.90" length="0.28" shape="937.62,47.32 937.82,47.51"/>
    </edge>
    <edge id=":35_0" function="internal">
        <lane id=":35_0_0" index="0" speed="13.90" length="0.28" shape="943.77,53.89 943.95,54.11"/>
    </edge>
    <edge id=":36_0" function="internal">
        <lane id=":36_0_0" index="0" speed="13.90" length="0.28" shape="948.70,61.43 948.83,61.67"/>
    </edge>
    <edge id=":37_0" function="internal">
        <lane id=":37_0_0" index="0" speed="13.90" length="0.28" shape="952.24,69.71 952.32,69.97"/>
    </edge>
    <edge id=":38_0" function="internal">
        <lane id=":38_0_0" index="0" speed="13.90" length="0.28" shape="954.29,78.47 954.32,78.75"/>
    </edge>
    <edge id=":39_0" function="internal">
        <lane id=":39_0_0" index="0" speed="13.90" length="0.28" shape="954.78,87.46 954.77,87.74"/>
    </edge>
    <edge id=":4_0" function="internal">
        <lane id=":4_0_0" index="0" speed="13.90" length="0.28" shape="664.02,11.24 664.28,11.33"/>
    </edge>
    <edge id=":40_0" function="internal">
        <lane id=":40_0_0" index="0" speed="13.90" length="0.28" shape="953.71,96.40 953.65,96.67"/>
    </edge>
    <edge id=":41_0" function="internal">
        <lane id=":41_0_0" index="0" speed="13.90" length="0.28" shape="951.10,105.01 951.00,105.27"/>
    </edge>
    <edge id=":42_0" function="internal">
        <lane id=":42_0_0" index="0" speed="13.90" length="0.28" shape="947.03,113.05 946.89,113.28"/>
    </edge>
    <edge id=":43_0" function="internal">
        <lane id=":43_0_0" index="0" speed="13.90" length="0.28" shape="941.64,120.25 941.45,120.46"/>
    </edge>
    <edge id=":44_0" function="internal">