<nodes>
<node id="1" x="0" y="0"/>
<node id="2" x="100.0" y="0.0"/>
<node id="3" x="134.729635533" y="3.03844939756"/>
<node id="4" x="168.404028665" y="12.0614758428"/>
<node id="5" x="200.0" y="26.7949192431"/>
<node id="6" x="228.557521937" y="46.7911113762"/>
<node id="7" x="253.208888624" y="71.4424780627"/>
<node id="8" x="267.734113589" y="91.072192997"/>
<node id="9" x="273.099956905" y="97.9401592494"/>
<node id="10" x="279.576890829" y="103.772016749"/>
<node id="11" x="286.968116999" y="108.390567456"/>
<node id="12" x="295.04905675" y="111.655479044"/>
<node id="13" x="303.574174816" y="113.467548828"/>
<node id="14" x="312.284439799" y="113.771717984"/>
<node id="15" x="320.915194704" y="112.558744486"/>
<node id="16" x="329.204198411" y="109.865483919"/>
<node id="17" x="336.899593737" y="105.773769644"/>
<node id="18" x="343.767559989" y="100.407926327"/>
<node id="19" x="349.599417489" y="93.9309924038"/>
<node id="20" x="354.217968196" y="86.5397662332"/>
<node id="21" x="357.482879785" y="78.4588264824"/>
<node id="22" x="358.575022023" y="74.2358257871"/>
<node id="23" x="361.123209331" y="65.9010806572"/>
<node id="24" x="365.079997252" y="58.1354471164"/>
<node id="25" x="370.325160786" y="51.1748800101"/>
<node id="26" x="376.699328293" y="45.2308726477"/>
<node id="27" x="384.00882392" y="40.4840306851"/>
<node id="28" x="392.031552341" y="37.0785845133"/>
<node id="29" x="400.523747012" y="35.1180068909"/>
<node id="30" x="409.227376895" y="34.6618689771"/>
<node id="31" x="417.877986601" y="35.7240302913"/>
<node id="32" x="426.212731731" y="38.2722175997"/>
<node id="33" x="433.978365271" y="42.2290055202"/>
<node id="34" x="440.938932378" y="47.4741690541"/>
<node id="35" x="446.88293974" y="53.8483365617"/>
<node id="36" x="451.629781703" y="61.1578321887"/>
<node id="37" x="455.035227874" y="69.1805606093"/>
<node id="38" x="456.995805497" y="77.67275528"/>
<node id="39" x="457.451943411" y="86.3763851631"/>
<node id="40" x="456.389782096" y="95.0269948689"/>
<node id="41" x="453.841594788" y="103.361739999"/>
<node id="42" x="449.884806868" y="111.12737354"/>
<node id="43" x="444.639643334" y="118.087940646"/>
<node id="44" x="438.265475826" y="124.031948008"/>
<node id="45" x="430.955980199" y="128.778789971"/>
<node id="46" x="422.933251778" y="132.184236143"/>
<node id="47" x="421.264269851" y="132.694495125"/>
<node id="48" x="324.176838561" y="160.533868062"/>
<node id="49" x="320.108493787" y="162.095559303"/>
<node id="50" x="316.373141149" y="164.339985602"/>
<node id="51" x="313.084277448" y="167.198951199"/>
<node id="52" x="310.341833142" y="170.585587874"/>
<node id="53" x="308.229136015" y="174.396994384"/>
<node id="54" x="306.810379299" y="178.517363071"/>
<node id="55" x="306.1286712" y="182.821498617"/>
<node id="56" x="306.204725072" y="187.178622043"/>
<node id="57" x="307.036230058" y="191.456344356"/>
<node id="58" x="308.597921299" y="195.524689131"/>
<node id="59" x="310.842347597" y="199.260041768"/>
<node id="60" x="313.701313195" y="202.548905469"/>
<node id="61" x="317.087949869" y="205.291349775"/>
<node id="62" x="320.899356379" y="207.404046902"/>
<node id="63" x="325.019725066" y="208.822803618"/>
<node id="64" x="329.323860613" y="209.504511717"/>
<node id="65" x="333.680984038" y="209.428457845"/>
<node id="66" x="337.958706352" y="208.596952859"/>
<node id="67" x="434.084875945" y="181.033217278"/>
<node id="68" x="442.640320573" y="179.370207306"/>
<node id="69" x="451.354567424" y="179.218099562"/>
<node id="70" x="459.962838516" y="180.581515761"/>
<node id="71" x="468.20357589" y="183.419029192"/>
<node id="72" x="475.82638891" y="187.644423447"/>
<node id="73" x="482.599662259" y="193.129312058"/>
<node id="74" x="488.317593455" y="199.70703946"/>
<node id="75" x="492.806446051" y="207.177744735"/>
<node id="76" x="495.929828533" y="215.314434284"/>
<node id="77" x="497.592838505" y="223.869878911"/>
<node id="78" x="497.744946249" y="232.584125762"/>
<node id="79" x="496.38153005" y="241.192396855"/>
<node id="80" x="493.544016618" y="249.433134228"/>
<node id="81" x="489.318622364" y="257.055947248"/>
<node id="82" x="483.833733753" y="263.829220598"/>
<node id="83" x="477.256006351" y="269.547151793"/>
<node id="84" x="469.785301076" y="274.03600439"/>
<node id="85" x="461.648611527" y="277.159386871"/>
<node id="86" x="453.0931669" y="278.822396843"/>
<node id="87" x="444.378920049" y="278.974504588"/>
<node id="88" x="435.770648956" y="277.611088388"/>
<node id="89" x="362.998469486" y="259.466946218"/>
<node id="90" x="354.390198393" y="258.103530019"/>
<node id="91" x="345.675951542" y="258.255637764"/>
<node id="92" x="337.120506915" y="259.918647735"/>
<node id="93" x="328.983817366" y="263.042030217"/>
<node id="94" x="321.513112091" y="267.530882813"/>
<node id="95" x="314.935384689" y="273.248814009"/>
<node id="96" x="309.450496078" y="280.022087359"/>
<node id="97" x="305.225101824" y="287.644900378"/>
<node id="98" x="302.387588392" y="295.885637752"/>
<node id="99" x="301.024172193" y="304.493908845"/>
<node id="100" x="301.176279937" y="313.208155696"/>
<node id="101" x="302.839289909" y="321.763600323"/>
<node id="102" x="305.962672391" y="329.900289872"/>
<node id="103" x="310.451524987" y="337.370995147"/>
<node id="104" x="316.169456183" y="343.948722549"/>
<node id="105" x="322.942729532" y="349.43361116"/>
<node id="106" x="330.565542552" y="353.659005414"/>
<node id="107" x="338.806279926" y="356.496518846"/>
<node id="108" x="387.321066239" y="368.592613626"/>
<node id="109" x="395.561803613" y="371.430127058"/>
<node id="110" x="403.184616633" y="375.655521312"/>
<node id="111" x="409.957889982" y="381.140409923"/>
<node id="112" x="415.675821178" y="387.718137325"/>
<node id="113" x="420.164673774" y="395.1888426"/>
<node id="114" x="423.288056256" y="403.325532149"/>
<node id="115" x="424.951066228" y="411.880976776"/>
<node id="116" x="425.103173973" y="420.595223627"/>
<node id="117" x="423.739757773" y="429.20349472"/>
<node id="118" x="420.902244342" y="437.444232094"/>
<node id="119" x="416.676850087" y="445.067045113"/>
<node id="120" x="411.191961476" y="451.840318463"/>
<node id="121" x="404.614234074" y="457.558249659"/>
<node id="122" x="397.143528799" y="462.047102255"/>
<node id="123" x="389.00683925" y="465.170484737"/>
<node id="124" x="380.451394623" y="466.833494708"/>
<node id="125" x="371.737147772" y="466.985602453"/>
<node id="126" x="363.12887668" y="465.622186254"/>
<node id="127" x="354.888139306" y="462.784672822"/>
<node id="128" x="347.265326286" y="458.559278568"/>
<node id="129" x="239.490441854" y="385.864201116"/>
<node id="130" x="235.679035344" y="383.751503989"/>
<node id="131" x="231.558666657" y="382.332747273"/>
<node id="132" x="227.254531111" y="381.651039174"/>
<node id="133" x="222.897407685" y="381.727093046"/>
<node id="134" x="218.619685372" y="382.558598032"/>
<node id="135" x="214.551340597" y="384.120289273"/>
<node id="136" x="210.81598796" y="386.364715571"/>
<node id="137" x="207.527124259" y="389.223681169"/>
<node id="138" x="204.784679953" y="392.610317843"/>
<node id="139" x="202.671982826" y="396.421724353"/>
<node id="140" x="201.25322611" y="400.54209304"/>
<node id="141" x="200.571518011" y="404.846228587"/>
<node id="142" x="173.854788567" y="786.913259836"/>
<node id="143" x="169.764539969" y="812.738073114"/>
<node id="144" x="161.251999674" y="837.460285236"/>
<node id="145" x="148.575816911" y="860.328724295"/>
<node id="146" x="132.121151078" y="880.648544343"/>
<node id="147" x="112.387968871" y="897.802337931"/>
<node id="148" x="89.9758530459" y="911.268895719"/>
<node id="149" x="65.5657844001" y="920.639043165"/>
<node id="150" x="39.8994505177" y="925.62807308"/>
<node id="151" x="13.756709966" y="926.084396313"/>
<node id="152" x="-12.0681033124" y="921.994147716"/>
<node id="153" x="-36.7903154338" y="913.481607421"/>
<node id="154" x="-59.658754493" y="900.805424658"/>
<node id="155" x="-79.9785745413" y="884.350758825"/>
<node id="156" x="-97.1323681287" y="864.617576618"/>
<node id="157" x="-98.6526256158" y="862.486254227"/>
<node id="158" x="-103.010412753" y="854.938345497"/>
<node id="159" x="-105.991314716" y="846.748384665"/>
<node id="160" x="-107.504758306" y="838.165219547"/>
<node id="161" x="-107.504758306" y="829.449645272"/>
<node id="162" x="-105.991314716" y="820.866480154"/>
<node id="163" x="-103.010412753" y="812.676519323"/>
<node id="164" x="-98.6526256158" y="805.128610592"/>
<node id="165" x="-93.0503624606" y="798.45209335"/>
<node id="166" x="-86.3738452189" y="792.849830195"/>
<node id="167" x="-78.8259364884" y="788.492043058"/>
<node id="168" x="-70.6359756564" y="785.511141095"/>
<node id="169" x="-62.0528105387" y="783.997697505"/>
<node id="170" x="-53.3372362639" y="783.997697505"/>
<node id="171" x="-22.8327263023" y="783.997697505"/>
<node id="172" x="7.20835160985" y="778.70064494"/>
<node id="173" x="35.8732145215" y="768.26748807"/>
<node id="174" x="62.2908950783" y="753.01523309"/>
<node id="175" x="85.6587054246" y="733.407312047"/>
<node id="176" x="105.266626467" y="710.0395017"/>
<node id="177" x="120.518881448" y="683.621821144"/>
<node id="178" x="127.380769447" y="666.638052369"/>
<node id="179" x="131.597745946" y="649.724683427"/>
<node id="180" x="132.813681402" y="632.33599628"/>
<node id="181" x="130.991630232" y="615.000337386"/>
<node id="182" x="126.186954537" y="598.244441969"/>
<node id="183" x="118.545641957" y="582.577429432"/>
<node id="184" x="108.299869909" y="568.475334024"/>
<node id="185" x="95.7609509918" y="556.366640778"/>
<node id="186" x="81.3098739115" y="546.619266209"/>
<node id="187" x="65.3857273326" y="539.529379363"/>
<node id="188" x="48.4723583909" y="535.312402864"/>
<node id="189" x="31.5589894492" y="531.095426364"/>
<node id="190" x="15.6348428703" y="524.005539518"/>
<node id="191" x="1.18376578992" y="514.25816495"/>
<node id="192" x="-11.3551531274" y="502.149471703"/>
<node id="193" x="-21.6009251753" y="488.047376295"/>
<node id="194" x="-29.2422377548" y="472.380363759"/>
<node id="195" x="-34.0469134499" y="455.624468342"/>
<node id="196" x="-35.8689646207" y="438.288809448"/>
<node id="197" x="-34.6530291646" y="420.9001223"/>
<node id="198" x="-30.436052665" y="403.986753359"/>
<node id="199" x="-23.346165819" y="388.06260678"/>
<node id="200" x="-13.5987912508" y="373.611529699"/>
<node id="201" x="-1.49009800415" y="361.072610782"/>
<node id="202" x="12.6119974039" y="350.826838734"/>
<node id="203" x="28.2790099404" y="343.185526155"/>
<node id="204" x="45.0349053572" y="338.380850459"/>
<node id="205" x="62.3705642512" y="336.558799289"/>
<node id="206" x="79.7592513989" y="337.774734745"/>
<node id="207" x="97.1479385467" y="338.990670201"/>
<node id="208" x="114.483597441" y="337.16861903"/>
<node id="209" x="131.239492857" y="332.363943335"/>
<node id="210" x="146.906505394" y="324.722630755"/>
<node id="211" x="161.008600802" y="314.476858707"/>
<node id="212" x="173.117294049" y="301.93793979"/>
<node id="213" x="182.864668617" y="287.48686271"/>
<node id="214" x="189.954555463" y="271.562716131"/>
<node id="215" x="194.171531962" y="254.649347189"/>
<node id="216" x="195.387467419" y="237.260660041"/>
<node id="217" x="193.565416248" y="219.925001148"/>
<node id="218" x="188.760740553" y="203.169105731"/>
<node id="219" x="181.119427973" y="187.502093194"/>
<node id="220" x="170.873655925" y="173.399997786"/>
<node id="221" x="158.334737008" y="161.29130454"/>
<node id="222" x="143.883659928" y="151.543929971"/>
<node id="223" x="127.959513349" y="144.454043125"/>
<node id="224" x="111.046144407" y="140.237066626"/>
<node id="225" x="95.4026979029" y="139.005900685"/>
<node id="226" x="-54.5973020971" y="139.005900685"/>
<node id="227" x="-254.597302097" y="139.005900685"/>
<node id="228" x="-271.354351242" y="137.539848851"/>
<node id="229" x="-287.602245928" y="133.186238591"/>
<node id="230" x="-302.847302097" y="126.07735215"/>
<node id="231" x="-316.626306432" y="116.429189446"/>
<node id="232" x="-328.520590858" y="104.53490502"/>
<node id="233" x="-338.168753562" y="90.7559006852"/>
<node id="234" x="-345.277640003" y="75.5108445161"/>
<node id="235" x="-349.631250263" y="59.2629498301"/>
<node id="236" x="-351.097302097" y="42.5059006852"/>
<node id="237" x="-349.631250263" y="25.7488515403"/>
<node id="238" x="-345.277640003" y="9.50095685428"/>
<node id="239" x="-338.168753562" y="-5.74409931479"/>
<node id="240" x="-328.520590858" y="-19.5231036495"/>
<node id="241" x="-316.626306432" y="-31.4173880758"/>
<node id="242" x="-302.847302097" y="-41.06555078"/>
<node id="243" x="-287.602245928" y="-48.1744372206"/>
<node id="244" x="-271.354351242" y="-52.5280474805"/>
<node id="245" x="-254.597302097" y="-53.9940993148"/>
<node id="246" x="21.4026979029" y="-53.9940993148"/>
</nodes>
