<configuration>
	<input>
		<net-file value="Track01.net.xml"/>
		<route-files value="Track01.rou.xml"/>
	</input>
	<time>
		<begin value="0"/>
		<end value="1000000"/>
	</time>
</configuration>
