<routes>
<vType accel="0.5" decel="5.0" id="Car" length="2.0" maxSpeed="1.0" sigma="0.0" />
<route id="route0" edges="1to2 2to3 3to4 4to5 5to6 6to7 7to8 8to9 9to10 10to11 11to12 12to13 13to14 14to15 15to16 16to17 17to18 18to19 19to20 20to21 21to22 22to23 23to24 24to25 25to26 26to27 27to28 28to29 29to30 30to31 31to32 32to33 33to34 34to35 35to36 36to37 37to38 38to39 39to40 40to41 41to42 42to43 43to44 44to45 45to46 46to47 47to48 48to49 49to50 50to51 51to52 52to53 53to54 54to55 55to56 56to57 57to58 58to59 59to60 60to61 61to62 62to63 63to64 64to65 65to66 66to67 67to68 68to69 69to70 70to71 71to72 72to73 73to74 74to75 75to76 76to77 77to78 78to79 79to80 80to81 81to82 82to83 83to84 84to85 85to86 86to87 87to88 88to89 89to90 90to91 91to92 92to93 93to94 94to95 95to96 96to97 97to98 98to99 99to100 100to101 101to102 102to103 103to104 104to105 105to106 106to107 107to108 108to109 109to110 110to111 111to112 112to113 113to114 114to115 115to116 116to117 117to118 118to119 119to120 120to121 121to122 122to123 123to124 124to125 125to126 126to127 127to128 128to129 129to130 130to131 131to132 132to133 133to134 134to135 135to136 136to137 137to138 138to139 139to140 140to141 141to142 142to143 143to144 144to145 145to146 146to147 147to148 148to149 149to150 150to151 151to152 152to153 153to154 154to155 155to156 156to157 157to158 158to159 159to160 160to161 161to162 162to163 163to164 164to165 165to166 166to167 167to168 168to169 169to170 170to171 171to172 172to173 173to174 174to175 175to176 176to177 177to178 178to179 179to180 180to181 181to182 182to183 183to184 184to185 185to186 186to187 187to188 188to189 189to190 190to191 191to192 192to193 193to194 194to195 195to196 196to197 197to198 198to199 199to200 200to201 201to202 202to203 203to204 204to205 205to206 206to207 207to208 208to209 209to210 210to211 211to212 212to213 213to214 214to215 215to216 216to217 217to218 218to219 219to220 220to221 221to222 222to223 223to224 224to225 225to226 226to227 227to228 228to229 229to230 230to231 231to232 232to233 233to234 234to235 235to236 236to237 237to238 238to239 239to240 240to241 241to242 242to243 243to244 244to245 245to1" />
<vehicle depart="1" id="veh0" route="route0" type="Car" />
</routes>
